
---------- Begin Simulation Statistics ----------
sim_seconds                                  1.071709                       # Number of seconds simulated
sim_ticks                                1071709267617                       # Number of ticks simulated
final_tick                               31083123428667                       # Number of ticks from beginning of simulation (restored from checkpoints and never reset)
sim_freq                                 1000000000000                       # Frequency of simulated ticks
host_inst_rate                                 544459                       # Simulator instruction rate (inst/s)
host_op_rate                                   544459                       # Simulator op (including micro ops) rate (op/s)
host_tick_rate                              486251599                       # Simulator tick rate (ticks/s)
host_mem_usage                                2425096                       # Number of bytes of host memory used
host_seconds                                  2204.02                       # Real time elapsed on the host
sim_insts                                  1200000007                       # Number of instructions simulated
sim_ops                                    1200000007                       # Number of ops (including micro ops) simulated
system.voltage_domain.voltage                       1                       # Voltage in Volts
system.clk_domain.clock                          1000                       # Clock period in ticks
system.mem_ctrls0.pwrStateResidencyTicks::UNDEFINED 31083123428667                       # Cumulative time (in ticks) in various power states
system.mem_ctrls0.bytes_read::cpu.inst             64                       # Number of bytes read from this memory
system.mem_ctrls0.bytes_read::switch_cpus.inst       138560                       # Number of bytes read from this memory
system.mem_ctrls0.bytes_read::switch_cpus.data      3630976                       # Number of bytes read from this memory
system.mem_ctrls0.bytes_read::switch_cpus_1.inst       129024                       # Number of bytes read from this memory
system.mem_ctrls0.bytes_read::switch_cpus_1.data      1603072                       # Number of bytes read from this memory
system.mem_ctrls0.bytes_read::total           5501696                       # Number of bytes read from this memory
system.mem_ctrls0.bytes_inst_read::cpu.inst           64                       # Number of instructions bytes read from this memory
system.mem_ctrls0.bytes_inst_read::switch_cpus.inst       138560                       # Number of instructions bytes read from this memory
system.mem_ctrls0.bytes_inst_read::switch_cpus_1.inst       129024                       # Number of instructions bytes read from this memory
system.mem_ctrls0.bytes_inst_read::total       267648                       # Number of instructions bytes read from this memory
system.mem_ctrls0.bytes_written::writebacks       735040                       # Number of bytes written to this memory
system.mem_ctrls0.bytes_written::total         735040                       # Number of bytes written to this memory
system.mem_ctrls0.num_reads::cpu.inst               1                       # Number of read requests responded to by this memory
system.mem_ctrls0.num_reads::switch_cpus.inst         2165                       # Number of read requests responded to by this memory
system.mem_ctrls0.num_reads::switch_cpus.data        56734                       # Number of read requests responded to by this memory
system.mem_ctrls0.num_reads::switch_cpus_1.inst         2016                       # Number of read requests responded to by this memory
system.mem_ctrls0.num_reads::switch_cpus_1.data        25048                       # Number of read requests responded to by this memory
system.mem_ctrls0.num_reads::total              85964                       # Number of read requests responded to by this memory
system.mem_ctrls0.num_writes::writebacks        11485                       # Number of write requests responded to by this memory
system.mem_ctrls0.num_writes::total             11485                       # Number of write requests responded to by this memory
system.mem_ctrls0.bw_read::cpu.inst                60                       # Total read bandwidth from this memory (bytes/s)
system.mem_ctrls0.bw_read::switch_cpus.inst       129289                       # Total read bandwidth from this memory (bytes/s)
system.mem_ctrls0.bw_read::switch_cpus.data      3388023                       # Total read bandwidth from this memory (bytes/s)
system.mem_ctrls0.bw_read::switch_cpus_1.inst       120391                       # Total read bandwidth from this memory (bytes/s)
system.mem_ctrls0.bw_read::switch_cpus_1.data      1495809                       # Total read bandwidth from this memory (bytes/s)
system.mem_ctrls0.bw_read::total              5133571                       # Total read bandwidth from this memory (bytes/s)
system.mem_ctrls0.bw_inst_read::cpu.inst           60                       # Instruction read bandwidth from this memory (bytes/s)
system.mem_ctrls0.bw_inst_read::switch_cpus.inst       129289                       # Instruction read bandwidth from this memory (bytes/s)
system.mem_ctrls0.bw_inst_read::switch_cpus_1.inst       120391                       # Instruction read bandwidth from this memory (bytes/s)
system.mem_ctrls0.bw_inst_read::total          249739                       # Instruction read bandwidth from this memory (bytes/s)
system.mem_ctrls0.bw_write::writebacks         685858                       # Write bandwidth from this memory (bytes/s)
system.mem_ctrls0.bw_write::total              685858                       # Write bandwidth from this memory (bytes/s)
system.mem_ctrls0.bw_total::writebacks         685858                       # Total bandwidth to/from this memory (bytes/s)
system.mem_ctrls0.bw_total::cpu.inst               60                       # Total bandwidth to/from this memory (bytes/s)
system.mem_ctrls0.bw_total::switch_cpus.inst       129289                       # Total bandwidth to/from this memory (bytes/s)
system.mem_ctrls0.bw_total::switch_cpus.data      3388023                       # Total bandwidth to/from this memory (bytes/s)
system.mem_ctrls0.bw_total::switch_cpus_1.inst       120391                       # Total bandwidth to/from this memory (bytes/s)
system.mem_ctrls0.bw_total::switch_cpus_1.data      1495809                       # Total bandwidth to/from this memory (bytes/s)
system.mem_ctrls0.bw_total::total             5819429                       # Total bandwidth to/from this memory (bytes/s)
system.mem_ctrls0.readReqs                      85964                       # Number of read requests accepted
system.mem_ctrls0.writeReqs                     11485                       # Number of write requests accepted
system.mem_ctrls0.readBursts                    85964                       # Number of DRAM read bursts, including those serviced by the write queue
system.mem_ctrls0.writeBursts                   11485                       # Number of DRAM write bursts, including those merged in the write queue
system.mem_ctrls0.bytesReadDRAM               5499200                       # Total number of bytes read from DRAM
system.mem_ctrls0.bytesReadWrQ                   2496                       # Total number of bytes read from write queue
system.mem_ctrls0.bytesWritten                 733824                       # Total number of bytes written to DRAM
system.mem_ctrls0.bytesReadSys                5501696                       # Total read bytes from the system interface side
system.mem_ctrls0.bytesWrittenSys              735040                       # Total written bytes from the system interface side
system.mem_ctrls0.servicedByWrQ                    39                       # Number of DRAM read bursts serviced by the write queue
system.mem_ctrls0.mergedWrBursts                    0                       # Number of DRAM write bursts merged with an existing one
system.mem_ctrls0.neitherReadNorWriteReqs            0                       # Number of requests that are neither read nor write
system.mem_ctrls0.perBankRdBursts::0             5361                       # Per bank write bursts
system.mem_ctrls0.perBankRdBursts::1             5407                       # Per bank write bursts
system.mem_ctrls0.perBankRdBursts::2             6040                       # Per bank write bursts
system.mem_ctrls0.perBankRdBursts::3             5708                       # Per bank write bursts
system.mem_ctrls0.perBankRdBursts::4             5189                       # Per bank write bursts
system.mem_ctrls0.perBankRdBursts::5             5321                       # Per bank write bursts
system.mem_ctrls0.perBankRdBursts::6             4873                       # Per bank write bursts
system.mem_ctrls0.perBankRdBursts::7             4937                       # Per bank write bursts
system.mem_ctrls0.perBankRdBursts::8             5038                       # Per bank write bursts
system.mem_ctrls0.perBankRdBursts::9             5150                       # Per bank write bursts
system.mem_ctrls0.perBankRdBursts::10            4971                       # Per bank write bursts
system.mem_ctrls0.perBankRdBursts::11            4803                       # Per bank write bursts
system.mem_ctrls0.perBankRdBursts::12            6064                       # Per bank write bursts
system.mem_ctrls0.perBankRdBursts::13            5581                       # Per bank write bursts
system.mem_ctrls0.perBankRdBursts::14            5674                       # Per bank write bursts
system.mem_ctrls0.perBankRdBursts::15            5808                       # Per bank write bursts
system.mem_ctrls0.perBankWrBursts::0              722                       # Per bank write bursts
system.mem_ctrls0.perBankWrBursts::1              753                       # Per bank write bursts
system.mem_ctrls0.perBankWrBursts::2              827                       # Per bank write bursts
system.mem_ctrls0.perBankWrBursts::3              723                       # Per bank write bursts
system.mem_ctrls0.perBankWrBursts::4              675                       # Per bank write bursts
system.mem_ctrls0.perBankWrBursts::5              696                       # Per bank write bursts
system.mem_ctrls0.perBankWrBursts::6              536                       # Per bank write bursts
system.mem_ctrls0.perBankWrBursts::7              643                       # Per bank write bursts
system.mem_ctrls0.perBankWrBursts::8              649                       # Per bank write bursts
system.mem_ctrls0.perBankWrBursts::9              556                       # Per bank write bursts
system.mem_ctrls0.perBankWrBursts::10             553                       # Per bank write bursts
system.mem_ctrls0.perBankWrBursts::11             672                       # Per bank write bursts
system.mem_ctrls0.perBankWrBursts::12             959                       # Per bank write bursts
system.mem_ctrls0.perBankWrBursts::13             864                       # Per bank write bursts
system.mem_ctrls0.perBankWrBursts::14             875                       # Per bank write bursts
system.mem_ctrls0.perBankWrBursts::15             763                       # Per bank write bursts
system.mem_ctrls0.numRdRetry                        0                       # Number of times read queue was full causing retry
system.mem_ctrls0.numWrRetry                        0                       # Number of times write queue was full causing retry
system.mem_ctrls0.totGap                 1071708771780                       # Total gap between requests
system.mem_ctrls0.readPktSize::0                    0                       # Read request sizes (log2)
system.mem_ctrls0.readPktSize::1                    0                       # Read request sizes (log2)
system.mem_ctrls0.readPktSize::2                    0                       # Read request sizes (log2)
system.mem_ctrls0.readPktSize::3                    0                       # Read request sizes (log2)
system.mem_ctrls0.readPktSize::4                    0                       # Read request sizes (log2)
system.mem_ctrls0.readPktSize::5                    0                       # Read request sizes (log2)
system.mem_ctrls0.readPktSize::6                85964                       # Read request sizes (log2)
system.mem_ctrls0.writePktSize::0                   0                       # Write request sizes (log2)
system.mem_ctrls0.writePktSize::1                   0                       # Write request sizes (log2)
system.mem_ctrls0.writePktSize::2                   0                       # Write request sizes (log2)
system.mem_ctrls0.writePktSize::3                   0                       # Write request sizes (log2)
system.mem_ctrls0.writePktSize::4                   0                       # Write request sizes (log2)
system.mem_ctrls0.writePktSize::5                   0                       # Write request sizes (log2)
system.mem_ctrls0.writePktSize::6               11485                       # Write request sizes (log2)
system.mem_ctrls0.rdQLenPdf::0                  83270                       # What read queue length does an incoming req see
system.mem_ctrls0.rdQLenPdf::1                   2539                       # What read queue length does an incoming req see
system.mem_ctrls0.rdQLenPdf::2                    106                       # What read queue length does an incoming req see
system.mem_ctrls0.rdQLenPdf::3                     10                       # What read queue length does an incoming req see
system.mem_ctrls0.rdQLenPdf::4                      0                       # What read queue length does an incoming req see
system.mem_ctrls0.rdQLenPdf::5                      0                       # What read queue length does an incoming req see
system.mem_ctrls0.rdQLenPdf::6                      0                       # What read queue length does an incoming req see
system.mem_ctrls0.rdQLenPdf::7                      0                       # What read queue length does an incoming req see
system.mem_ctrls0.rdQLenPdf::8                      0                       # What read queue length does an incoming req see
system.mem_ctrls0.rdQLenPdf::9                      0                       # What read queue length does an incoming req see
system.mem_ctrls0.rdQLenPdf::10                     0                       # What read queue length does an incoming req see
system.mem_ctrls0.rdQLenPdf::11                     0                       # What read queue length does an incoming req see
system.mem_ctrls0.rdQLenPdf::12                     0                       # What read queue length does an incoming req see
system.mem_ctrls0.rdQLenPdf::13                     0                       # What read queue length does an incoming req see
system.mem_ctrls0.rdQLenPdf::14                     0                       # What read queue length does an incoming req see
system.mem_ctrls0.rdQLenPdf::15                     0                       # What read queue length does an incoming req see
system.mem_ctrls0.rdQLenPdf::16                     0                       # What read queue length does an incoming req see
system.mem_ctrls0.rdQLenPdf::17                     0                       # What read queue length does an incoming req see
system.mem_ctrls0.rdQLenPdf::18                     0                       # What read queue length does an incoming req see
system.mem_ctrls0.rdQLenPdf::19                     0                       # What read queue length does an incoming req see
system.mem_ctrls0.rdQLenPdf::20                     0                       # What read queue length does an incoming req see
system.mem_ctrls0.rdQLenPdf::21                     0                       # What read queue length does an incoming req see
system.mem_ctrls0.rdQLenPdf::22                     0                       # What read queue length does an incoming req see
system.mem_ctrls0.rdQLenPdf::23                     0                       # What read queue length does an incoming req see
system.mem_ctrls0.rdQLenPdf::24                     0                       # What read queue length does an incoming req see
system.mem_ctrls0.rdQLenPdf::25                     0                       # What read queue length does an incoming req see
system.mem_ctrls0.rdQLenPdf::26                     0                       # What read queue length does an incoming req see
system.mem_ctrls0.rdQLenPdf::27                     0                       # What read queue length does an incoming req see
system.mem_ctrls0.rdQLenPdf::28                     0                       # What read queue length does an incoming req see
system.mem_ctrls0.rdQLenPdf::29                     0                       # What read queue length does an incoming req see
system.mem_ctrls0.rdQLenPdf::30                     0                       # What read queue length does an incoming req see
system.mem_ctrls0.rdQLenPdf::31                     0                       # What read queue length does an incoming req see
system.mem_ctrls0.wrQLenPdf::0                      2                       # What write queue length does an incoming req see
system.mem_ctrls0.wrQLenPdf::1                      2                       # What write queue length does an incoming req see
system.mem_ctrls0.wrQLenPdf::2                      2                       # What write queue length does an incoming req see
system.mem_ctrls0.wrQLenPdf::3                      2                       # What write queue length does an incoming req see
system.mem_ctrls0.wrQLenPdf::4                      2                       # What write queue length does an incoming req see
system.mem_ctrls0.wrQLenPdf::5                      2                       # What write queue length does an incoming req see
system.mem_ctrls0.wrQLenPdf::6                      2                       # What write queue length does an incoming req see
system.mem_ctrls0.wrQLenPdf::7                      2                       # What write queue length does an incoming req see
system.mem_ctrls0.wrQLenPdf::8                      2                       # What write queue length does an incoming req see
system.mem_ctrls0.wrQLenPdf::9                      2                       # What write queue length does an incoming req see
system.mem_ctrls0.wrQLenPdf::10                     2                       # What write queue length does an incoming req see
system.mem_ctrls0.wrQLenPdf::11                     2                       # What write queue length does an incoming req see
system.mem_ctrls0.wrQLenPdf::12                     2                       # What write queue length does an incoming req see
system.mem_ctrls0.wrQLenPdf::13                     2                       # What write queue length does an incoming req see
system.mem_ctrls0.wrQLenPdf::14                     2                       # What write queue length does an incoming req see
system.mem_ctrls0.wrQLenPdf::15                   416                       # What write queue length does an incoming req see
system.mem_ctrls0.wrQLenPdf::16                   439                       # What write queue length does an incoming req see
system.mem_ctrls0.wrQLenPdf::17                   655                       # What write queue length does an incoming req see
system.mem_ctrls0.wrQLenPdf::18                   663                       # What write queue length does an incoming req see
system.mem_ctrls0.wrQLenPdf::19                   665                       # What write queue length does an incoming req see
system.mem_ctrls0.wrQLenPdf::20                   662                       # What write queue length does an incoming req see
system.mem_ctrls0.wrQLenPdf::21                   664                       # What write queue length does an incoming req see
system.mem_ctrls0.wrQLenPdf::22                   663                       # What write queue length does an incoming req see
system.mem_ctrls0.wrQLenPdf::23                   661                       # What write queue length does an incoming req see
system.mem_ctrls0.wrQLenPdf::24                   663                       # What write queue length does an incoming req see
system.mem_ctrls0.wrQLenPdf::25                   663                       # What write queue length does an incoming req see
system.mem_ctrls0.wrQLenPdf::26                   664                       # What write queue length does an incoming req see
system.mem_ctrls0.wrQLenPdf::27                   663                       # What write queue length does an incoming req see
system.mem_ctrls0.wrQLenPdf::28                   662                       # What write queue length does an incoming req see
system.mem_ctrls0.wrQLenPdf::29                   665                       # What write queue length does an incoming req see
system.mem_ctrls0.wrQLenPdf::30                   664                       # What write queue length does an incoming req see
system.mem_ctrls0.wrQLenPdf::31                   661                       # What write queue length does an incoming req see
system.mem_ctrls0.wrQLenPdf::32                   661                       # What write queue length does an incoming req see
system.mem_ctrls0.wrQLenPdf::33                     1                       # What write queue length does an incoming req see
system.mem_ctrls0.wrQLenPdf::34                     0                       # What write queue length does an incoming req see
system.mem_ctrls0.wrQLenPdf::35                     0                       # What write queue length does an incoming req see
system.mem_ctrls0.wrQLenPdf::36                     0                       # What write queue length does an incoming req see
system.mem_ctrls0.wrQLenPdf::37                     0                       # What write queue length does an incoming req see
system.mem_ctrls0.wrQLenPdf::38                     0                       # What write queue length does an incoming req see
system.mem_ctrls0.wrQLenPdf::39                     0                       # What write queue length does an incoming req see
system.mem_ctrls0.wrQLenPdf::40                     0                       # What write queue length does an incoming req see
system.mem_ctrls0.wrQLenPdf::41                     0                       # What write queue length does an incoming req see
system.mem_ctrls0.wrQLenPdf::42                     0                       # What write queue length does an incoming req see
system.mem_ctrls0.wrQLenPdf::43                     0                       # What write queue length does an incoming req see
system.mem_ctrls0.wrQLenPdf::44                     0                       # What write queue length does an incoming req see
system.mem_ctrls0.wrQLenPdf::45                     0                       # What write queue length does an incoming req see
system.mem_ctrls0.wrQLenPdf::46                     0                       # What write queue length does an incoming req see
system.mem_ctrls0.wrQLenPdf::47                     0                       # What write queue length does an incoming req see
system.mem_ctrls0.wrQLenPdf::48                     0                       # What write queue length does an incoming req see
system.mem_ctrls0.wrQLenPdf::49                     0                       # What write queue length does an incoming req see
system.mem_ctrls0.wrQLenPdf::50                     0                       # What write queue length does an incoming req see
system.mem_ctrls0.wrQLenPdf::51                     0                       # What write queue length does an incoming req see
system.mem_ctrls0.wrQLenPdf::52                     0                       # What write queue length does an incoming req see
system.mem_ctrls0.wrQLenPdf::53                     0                       # What write queue length does an incoming req see
system.mem_ctrls0.wrQLenPdf::54                     0                       # What write queue length does an incoming req see
system.mem_ctrls0.wrQLenPdf::55                     0                       # What write queue length does an incoming req see
system.mem_ctrls0.wrQLenPdf::56                     0                       # What write queue length does an incoming req see
system.mem_ctrls0.wrQLenPdf::57                     0                       # What write queue length does an incoming req see
system.mem_ctrls0.wrQLenPdf::58                     0                       # What write queue length does an incoming req see
system.mem_ctrls0.wrQLenPdf::59                     0                       # What write queue length does an incoming req see
system.mem_ctrls0.wrQLenPdf::60                     0                       # What write queue length does an incoming req see
system.mem_ctrls0.wrQLenPdf::61                     0                       # What write queue length does an incoming req see
system.mem_ctrls0.wrQLenPdf::62                     0                       # What write queue length does an incoming req see
system.mem_ctrls0.wrQLenPdf::63                     0                       # What write queue length does an incoming req see
system.mem_ctrls0.bytesPerActivate::samples        46626                       # Bytes accessed per row activation
system.mem_ctrls0.bytesPerActivate::mean   133.681294                       # Bytes accessed per row activation
system.mem_ctrls0.bytesPerActivate::gmean    95.799023                       # Bytes accessed per row activation
system.mem_ctrls0.bytesPerActivate::stdev   161.433038                       # Bytes accessed per row activation
system.mem_ctrls0.bytesPerActivate::0-127        31442     67.43%     67.43% # Bytes accessed per row activation
system.mem_ctrls0.bytesPerActivate::128-255         9145     19.61%     87.05% # Bytes accessed per row activation
system.mem_ctrls0.bytesPerActivate::256-383         2324      4.98%     92.03% # Bytes accessed per row activation
system.mem_ctrls0.bytesPerActivate::384-511         1405      3.01%     95.05% # Bytes accessed per row activation
system.mem_ctrls0.bytesPerActivate::512-639          854      1.83%     96.88% # Bytes accessed per row activation
system.mem_ctrls0.bytesPerActivate::640-767          489      1.05%     97.93% # Bytes accessed per row activation
system.mem_ctrls0.bytesPerActivate::768-895          342      0.73%     98.66% # Bytes accessed per row activation
system.mem_ctrls0.bytesPerActivate::896-1023          182      0.39%     99.05% # Bytes accessed per row activation
system.mem_ctrls0.bytesPerActivate::1024-1151          443      0.95%    100.00% # Bytes accessed per row activation
system.mem_ctrls0.bytesPerActivate::total        46626                       # Bytes accessed per row activation
system.mem_ctrls0.rdPerTurnAround::samples          662                       # Reads before turning the bus around for writes
system.mem_ctrls0.rdPerTurnAround::mean    129.777946                       # Reads before turning the bus around for writes
system.mem_ctrls0.rdPerTurnAround::gmean    77.865120                       # Reads before turning the bus around for writes
system.mem_ctrls0.rdPerTurnAround::stdev  1052.491884                       # Reads before turning the bus around for writes
system.mem_ctrls0.rdPerTurnAround::0-1023          660     99.70%     99.70% # Reads before turning the bus around for writes
system.mem_ctrls0.rdPerTurnAround::1024-2047            1      0.15%     99.85% # Reads before turning the bus around for writes
system.mem_ctrls0.rdPerTurnAround::26624-27647            1      0.15%    100.00% # Reads before turning the bus around for writes
system.mem_ctrls0.rdPerTurnAround::total          662                       # Reads before turning the bus around for writes
system.mem_ctrls0.wrPerTurnAround::samples          662                       # Writes before turning the bus around for reads
system.mem_ctrls0.wrPerTurnAround::mean     17.320242                       # Writes before turning the bus around for reads
system.mem_ctrls0.wrPerTurnAround::gmean    17.291888                       # Writes before turning the bus around for reads
system.mem_ctrls0.wrPerTurnAround::stdev     0.982532                       # Writes before turning the bus around for reads
system.mem_ctrls0.wrPerTurnAround::16             225     33.99%     33.99% # Writes before turning the bus around for reads
system.mem_ctrls0.wrPerTurnAround::17              21      3.17%     37.16% # Writes before turning the bus around for reads
system.mem_ctrls0.wrPerTurnAround::18             396     59.82%     96.98% # Writes before turning the bus around for reads
system.mem_ctrls0.wrPerTurnAround::19              19      2.87%     99.85% # Writes before turning the bus around for reads
system.mem_ctrls0.wrPerTurnAround::20               1      0.15%    100.00% # Writes before turning the bus around for reads
system.mem_ctrls0.wrPerTurnAround::total          662                       # Writes before turning the bus around for reads
system.mem_ctrls0.totQLat                  3516188660                       # Total ticks spent queuing
system.mem_ctrls0.totMemAccLat             5127282410                       # Total ticks spent from burst creation until serviced by the DRAM
system.mem_ctrls0.totBusLat                 429625000                       # Total ticks spent in databus transfers
system.mem_ctrls0.avgQLat                    40921.60                       # Average queueing delay per DRAM burst
system.mem_ctrls0.avgBusLat                   5000.00                       # Average bus latency per DRAM burst
system.mem_ctrls0.avgMemAccLat               59671.60                       # Average memory access latency per DRAM burst
system.mem_ctrls0.avgRdBW                        5.13                       # Average DRAM read bandwidth in MiByte/s
system.mem_ctrls0.avgWrBW                        0.68                       # Average achieved write bandwidth in MiByte/s
system.mem_ctrls0.avgRdBWSys                     5.13                       # Average system read bandwidth in MiByte/s
system.mem_ctrls0.avgWrBWSys                     0.69                       # Average system write bandwidth in MiByte/s
system.mem_ctrls0.peakBW                     12800.00                       # Theoretical peak bandwidth in MiByte/s
system.mem_ctrls0.busUtil                        0.05                       # Data bus utilization in percentage
system.mem_ctrls0.busUtilRead                    0.04                       # Data bus utilization in percentage for reads
system.mem_ctrls0.busUtilWrite                   0.01                       # Data bus utilization in percentage for writes
system.mem_ctrls0.avgRdQLen                      1.01                       # Average read queue length when enqueuing
system.mem_ctrls0.avgWrQLen                     17.58                       # Average write queue length when enqueuing
system.mem_ctrls0.readRowHits                   49122                       # Number of row buffer hits during reads
system.mem_ctrls0.writeRowHits                   1643                       # Number of row buffer hits during writes
system.mem_ctrls0.readRowHitRate                57.17                       # Row buffer hit rate for reads
system.mem_ctrls0.writeRowHitRate               14.31                       # Row buffer hit rate for writes
system.mem_ctrls0.avgGap                  10997637.45                       # Average gap between requests
system.mem_ctrls0.pageHitRate                   52.11                       # Row buffer hit rate, read and write combined
system.mem_ctrls0_0.actEnergy               168032760                       # Energy for activate commands per rank (pJ)
system.mem_ctrls0_0.preEnergy                89311530                       # Energy for precharge commands per rank (pJ)
system.mem_ctrls0_0.readEnergy              305849040                       # Energy for read commands per rank (pJ)
system.mem_ctrls0_0.writeEnergy              29101500                       # Energy for write commands per rank (pJ)
system.mem_ctrls0_0.refreshEnergy        6292684320.000001                       # Energy for refresh commands per rank (pJ)
system.mem_ctrls0_0.actBackEnergy          2217106770                       # Energy for active background per rank (pJ)
system.mem_ctrls0_0.preBackEnergy           307745760                       # Energy for precharge background per rank (pJ)
system.mem_ctrls0_0.actPowerDownEnergy    17621419470                       # Energy for active power-down per rank (pJ)
system.mem_ctrls0_0.prePowerDownEnergy     8250074880                       # Energy for precharge power-down per rank (pJ)
system.mem_ctrls0_0.selfRefreshEnergy    242481229515                       # Energy for self refresh per rank (pJ)
system.mem_ctrls0_0.totalEnergy          277764302445                       # Total energy per rank (pJ)
system.mem_ctrls0_0.averagePower           259.178782                       # Core power per rank (mW)
system.mem_ctrls0_0.totalIdleTime        1066032385620                       # Total Idle time Per DRAM Rank
system.mem_ctrls0_0.memoryStateTime::IDLE    555175458                       # Time in different power states
system.mem_ctrls0_0.memoryStateTime::REF   2673622000                       # Time in different power states
system.mem_ctrls0_0.memoryStateTime::SREF 1005913854117                       # Time in different power states
system.mem_ctrls0_0.memoryStateTime::PRE_PDN  21484666200                       # Time in different power states
system.mem_ctrls0_0.memoryStateTime::ACT   2438705307                       # Time in different power states
system.mem_ctrls0_0.memoryStateTime::ACT_PDN  38643244535                       # Time in different power states
system.mem_ctrls0_1.actEnergy               164876880                       # Energy for activate commands per rank (pJ)
system.mem_ctrls0_1.preEnergy                87634140                       # Energy for precharge commands per rank (pJ)
system.mem_ctrls0_1.readEnergy              307655460                       # Energy for read commands per rank (pJ)
system.mem_ctrls0_1.writeEnergy              30751020                       # Energy for write commands per rank (pJ)
system.mem_ctrls0_1.refreshEnergy        6313582080.000001                       # Energy for refresh commands per rank (pJ)
system.mem_ctrls0_1.actBackEnergy          2198753340                       # Energy for active background per rank (pJ)
system.mem_ctrls0_1.preBackEnergy           310677600                       # Energy for precharge background per rank (pJ)
system.mem_ctrls0_1.actPowerDownEnergy    17556306660                       # Energy for active power-down per rank (pJ)
system.mem_ctrls0_1.prePowerDownEnergy     8221753920                       # Energy for precharge power-down per rank (pJ)
system.mem_ctrls0_1.selfRefreshEnergy    242580090030                       # Energy for self refresh per rank (pJ)
system.mem_ctrls0_1.totalEnergy          277773438150                       # Total energy per rank (pJ)
system.mem_ctrls0_1.averagePower           259.187306                       # Core power per rank (mW)
system.mem_ctrls0_1.totalIdleTime        1066065594858                       # Total Idle time Per DRAM Rank
system.mem_ctrls0_1.memoryStateTime::IDLE    563918182                       # Time in different power states
system.mem_ctrls0_1.memoryStateTime::REF   2682792000                       # Time in different power states
system.mem_ctrls0_1.memoryStateTime::SREF 1006163889367                       # Time in different power states
system.mem_ctrls0_1.memoryStateTime::PRE_PDN  21410875175                       # Time in different power states
system.mem_ctrls0_1.memoryStateTime::ACT   2387239978                       # Time in different power states
system.mem_ctrls0_1.memoryStateTime::ACT_PDN  38500552915                       # Time in different power states
system.mem_ctrls1.pwrStateResidencyTicks::UNDEFINED 31083123428667                       # Cumulative time (in ticks) in various power states
system.mem_ctrls1.bytes_read::cpu.inst            192                       # Number of bytes read from this memory
system.mem_ctrls1.bytes_read::cpu.data            192                       # Number of bytes read from this memory
system.mem_ctrls1.bytes_read::switch_cpus.inst       138304                       # Number of bytes read from this memory
system.mem_ctrls1.bytes_read::switch_cpus.data      3635584                       # Number of bytes read from this memory
system.mem_ctrls1.bytes_read::switch_cpus_1.inst       133056                       # Number of bytes read from this memory
system.mem_ctrls1.bytes_read::switch_cpus_1.data      1607424                       # Number of bytes read from this memory
system.mem_ctrls1.bytes_read::total           5514752                       # Number of bytes read from this memory
system.mem_ctrls1.bytes_inst_read::cpu.inst          192                       # Number of instructions bytes read from this memory
system.mem_ctrls1.bytes_inst_read::switch_cpus.inst       138304                       # Number of instructions bytes read from this memory
system.mem_ctrls1.bytes_inst_read::switch_cpus_1.inst       133056                       # Number of instructions bytes read from this memory
system.mem_ctrls1.bytes_inst_read::total       271552                       # Number of instructions bytes read from this memory
system.mem_ctrls1.bytes_written::writebacks       730496                       # Number of bytes written to this memory
system.mem_ctrls1.bytes_written::total         730496                       # Number of bytes written to this memory
system.mem_ctrls1.num_reads::cpu.inst               3                       # Number of read requests responded to by this memory
system.mem_ctrls1.num_reads::cpu.data               3                       # Number of read requests responded to by this memory
system.mem_ctrls1.num_reads::switch_cpus.inst         2161                       # Number of read requests responded to by this memory
system.mem_ctrls1.num_reads::switch_cpus.data        56806                       # Number of read requests responded to by this memory
system.mem_ctrls1.num_reads::switch_cpus_1.inst         2079                       # Number of read requests responded to by this memory
system.mem_ctrls1.num_reads::switch_cpus_1.data        25116                       # Number of read requests responded to by this memory
system.mem_ctrls1.num_reads::total              86168                       # Number of read requests responded to by this memory
system.mem_ctrls1.num_writes::writebacks        11414                       # Number of write requests responded to by this memory
system.mem_ctrls1.num_writes::total             11414                       # Number of write requests responded to by this memory
system.mem_ctrls1.bw_read::cpu.inst               179                       # Total read bandwidth from this memory (bytes/s)
system.mem_ctrls1.bw_read::cpu.data               179                       # Total read bandwidth from this memory (bytes/s)
system.mem_ctrls1.bw_read::switch_cpus.inst       129050                       # Total read bandwidth from this memory (bytes/s)
system.mem_ctrls1.bw_read::switch_cpus.data      3392323                       # Total read bandwidth from this memory (bytes/s)
system.mem_ctrls1.bw_read::switch_cpus_1.inst       124153                       # Total read bandwidth from this memory (bytes/s)
system.mem_ctrls1.bw_read::switch_cpus_1.data      1499869                       # Total read bandwidth from this memory (bytes/s)
system.mem_ctrls1.bw_read::total              5145754                       # Total read bandwidth from this memory (bytes/s)
system.mem_ctrls1.bw_inst_read::cpu.inst          179                       # Instruction read bandwidth from this memory (bytes/s)
system.mem_ctrls1.bw_inst_read::switch_cpus.inst       129050                       # Instruction read bandwidth from this memory (bytes/s)
system.mem_ctrls1.bw_inst_read::switch_cpus_1.inst       124153                       # Instruction read bandwidth from this memory (bytes/s)
system.mem_ctrls1.bw_inst_read::total          253382                       # Instruction read bandwidth from this memory (bytes/s)
system.mem_ctrls1.bw_write::writebacks         681618                       # Write bandwidth from this memory (bytes/s)
system.mem_ctrls1.bw_write::total              681618                       # Write bandwidth from this memory (bytes/s)
system.mem_ctrls1.bw_total::writebacks         681618                       # Total bandwidth to/from this memory (bytes/s)
system.mem_ctrls1.bw_total::cpu.inst              179                       # Total bandwidth to/from this memory (bytes/s)
system.mem_ctrls1.bw_total::cpu.data              179                       # Total bandwidth to/from this memory (bytes/s)
system.mem_ctrls1.bw_total::switch_cpus.inst       129050                       # Total bandwidth to/from this memory (bytes/s)
system.mem_ctrls1.bw_total::switch_cpus.data      3392323                       # Total bandwidth to/from this memory (bytes/s)
system.mem_ctrls1.bw_total::switch_cpus_1.inst       124153                       # Total bandwidth to/from this memory (bytes/s)
system.mem_ctrls1.bw_total::switch_cpus_1.data      1499869                       # Total bandwidth to/from this memory (bytes/s)
system.mem_ctrls1.bw_total::total             5827371                       # Total bandwidth to/from this memory (bytes/s)
system.mem_ctrls1.readReqs                      86168                       # Number of read requests accepted
system.mem_ctrls1.writeReqs                     11414                       # Number of write requests accepted
system.mem_ctrls1.readBursts                    86168                       # Number of DRAM read bursts, including those serviced by the write queue
system.mem_ctrls1.writeBursts                   11414                       # Number of DRAM write bursts, including those merged in the write queue
system.mem_ctrls1.bytesReadDRAM               5512896                       # Total number of bytes read from DRAM
system.mem_ctrls1.bytesReadWrQ                   1856                       # Total number of bytes read from write queue
system.mem_ctrls1.bytesWritten                 728640                       # Total number of bytes written to DRAM
system.mem_ctrls1.bytesReadSys                5514752                       # Total read bytes from the system interface side
system.mem_ctrls1.bytesWrittenSys              730496                       # Total written bytes from the system interface side
system.mem_ctrls1.servicedByWrQ                    29                       # Number of DRAM read bursts serviced by the write queue
system.mem_ctrls1.mergedWrBursts                    0                       # Number of DRAM write bursts merged with an existing one
system.mem_ctrls1.neitherReadNorWriteReqs            0                       # Number of requests that are neither read nor write
system.mem_ctrls1.perBankRdBursts::0             5345                       # Per bank write bursts
system.mem_ctrls1.perBankRdBursts::1             5456                       # Per bank write bursts
system.mem_ctrls1.perBankRdBursts::2             5989                       # Per bank write bursts
system.mem_ctrls1.perBankRdBursts::3             5664                       # Per bank write bursts
system.mem_ctrls1.perBankRdBursts::4             5218                       # Per bank write bursts
system.mem_ctrls1.perBankRdBursts::5             5187                       # Per bank write bursts
system.mem_ctrls1.perBankRdBursts::6             4937                       # Per bank write bursts
system.mem_ctrls1.perBankRdBursts::7             4911                       # Per bank write bursts
system.mem_ctrls1.perBankRdBursts::8             5208                       # Per bank write bursts
system.mem_ctrls1.perBankRdBursts::9             5079                       # Per bank write bursts
system.mem_ctrls1.perBankRdBursts::10            5012                       # Per bank write bursts
system.mem_ctrls1.perBankRdBursts::11            4821                       # Per bank write bursts
system.mem_ctrls1.perBankRdBursts::12            6116                       # Per bank write bursts
system.mem_ctrls1.perBankRdBursts::13            5638                       # Per bank write bursts
system.mem_ctrls1.perBankRdBursts::14            5680                       # Per bank write bursts
system.mem_ctrls1.perBankRdBursts::15            5878                       # Per bank write bursts
system.mem_ctrls1.perBankWrBursts::0              710                       # Per bank write bursts
system.mem_ctrls1.perBankWrBursts::1              706                       # Per bank write bursts
system.mem_ctrls1.perBankWrBursts::2              809                       # Per bank write bursts
system.mem_ctrls1.perBankWrBursts::3              736                       # Per bank write bursts
system.mem_ctrls1.perBankWrBursts::4              700                       # Per bank write bursts
system.mem_ctrls1.perBankWrBursts::5              654                       # Per bank write bursts
system.mem_ctrls1.perBankWrBursts::6              532                       # Per bank write bursts
system.mem_ctrls1.perBankWrBursts::7              631                       # Per bank write bursts
system.mem_ctrls1.perBankWrBursts::8              711                       # Per bank write bursts
system.mem_ctrls1.perBankWrBursts::9              523                       # Per bank write bursts
system.mem_ctrls1.perBankWrBursts::10             600                       # Per bank write bursts
system.mem_ctrls1.perBankWrBursts::11             655                       # Per bank write bursts
system.mem_ctrls1.perBankWrBursts::12             928                       # Per bank write bursts
system.mem_ctrls1.perBankWrBursts::13             830                       # Per bank write bursts
system.mem_ctrls1.perBankWrBursts::14             843                       # Per bank write bursts
system.mem_ctrls1.perBankWrBursts::15             817                       # Per bank write bursts
system.mem_ctrls1.numRdRetry                        0                       # Number of times read queue was full causing retry
system.mem_ctrls1.numWrRetry                        0                       # Number of times write queue was full causing retry
system.mem_ctrls1.totGap                 1071704191032                       # Total gap between requests
system.mem_ctrls1.readPktSize::0                    0                       # Read request sizes (log2)
system.mem_ctrls1.readPktSize::1                    0                       # Read request sizes (log2)
system.mem_ctrls1.readPktSize::2                    0                       # Read request sizes (log2)
system.mem_ctrls1.readPktSize::3                    0                       # Read request sizes (log2)
system.mem_ctrls1.readPktSize::4                    0                       # Read request sizes (log2)
system.mem_ctrls1.readPktSize::5                    0                       # Read request sizes (log2)
system.mem_ctrls1.readPktSize::6                86168                       # Read request sizes (log2)
system.mem_ctrls1.writePktSize::0                   0                       # Write request sizes (log2)
system.mem_ctrls1.writePktSize::1                   0                       # Write request sizes (log2)
system.mem_ctrls1.writePktSize::2                   0                       # Write request sizes (log2)
system.mem_ctrls1.writePktSize::3                   0                       # Write request sizes (log2)
system.mem_ctrls1.writePktSize::4                   0                       # Write request sizes (log2)
system.mem_ctrls1.writePktSize::5                   0                       # Write request sizes (log2)
system.mem_ctrls1.writePktSize::6               11414                       # Write request sizes (log2)
system.mem_ctrls1.rdQLenPdf::0                  83525                       # What read queue length does an incoming req see
system.mem_ctrls1.rdQLenPdf::1                   2504                       # What read queue length does an incoming req see
system.mem_ctrls1.rdQLenPdf::2                    103                       # What read queue length does an incoming req see
system.mem_ctrls1.rdQLenPdf::3                      7                       # What read queue length does an incoming req see
system.mem_ctrls1.rdQLenPdf::4                      0                       # What read queue length does an incoming req see
system.mem_ctrls1.rdQLenPdf::5                      0                       # What read queue length does an incoming req see
system.mem_ctrls1.rdQLenPdf::6                      0                       # What read queue length does an incoming req see
system.mem_ctrls1.rdQLenPdf::7                      0                       # What read queue length does an incoming req see
system.mem_ctrls1.rdQLenPdf::8                      0                       # What read queue length does an incoming req see
system.mem_ctrls1.rdQLenPdf::9                      0                       # What read queue length does an incoming req see
system.mem_ctrls1.rdQLenPdf::10                     0                       # What read queue length does an incoming req see
system.mem_ctrls1.rdQLenPdf::11                     0                       # What read queue length does an incoming req see
system.mem_ctrls1.rdQLenPdf::12                     0                       # What read queue length does an incoming req see
system.mem_ctrls1.rdQLenPdf::13                     0                       # What read queue length does an incoming req see
system.mem_ctrls1.rdQLenPdf::14                     0                       # What read queue length does an incoming req see
system.mem_ctrls1.rdQLenPdf::15                     0                       # What read queue length does an incoming req see
system.mem_ctrls1.rdQLenPdf::16                     0                       # What read queue length does an incoming req see
system.mem_ctrls1.rdQLenPdf::17                     0                       # What read queue length does an incoming req see
system.mem_ctrls1.rdQLenPdf::18                     0                       # What read queue length does an incoming req see
system.mem_ctrls1.rdQLenPdf::19                     0                       # What read queue length does an incoming req see
system.mem_ctrls1.rdQLenPdf::20                     0                       # What read queue length does an incoming req see
system.mem_ctrls1.rdQLenPdf::21                     0                       # What read queue length does an incoming req see
system.mem_ctrls1.rdQLenPdf::22                     0                       # What read queue length does an incoming req see
system.mem_ctrls1.rdQLenPdf::23                     0                       # What read queue length does an incoming req see
system.mem_ctrls1.rdQLenPdf::24                     0                       # What read queue length does an incoming req see
system.mem_ctrls1.rdQLenPdf::25                     0                       # What read queue length does an incoming req see
system.mem_ctrls1.rdQLenPdf::26                     0                       # What read queue length does an incoming req see
system.mem_ctrls1.rdQLenPdf::27                     0                       # What read queue length does an incoming req see
system.mem_ctrls1.rdQLenPdf::28                     0                       # What read queue length does an incoming req see
system.mem_ctrls1.rdQLenPdf::29                     0                       # What read queue length does an incoming req see
system.mem_ctrls1.rdQLenPdf::30                     0                       # What read queue length does an incoming req see
system.mem_ctrls1.rdQLenPdf::31                     0                       # What read queue length does an incoming req see
system.mem_ctrls1.wrQLenPdf::0                      2                       # What write queue length does an incoming req see
system.mem_ctrls1.wrQLenPdf::1                      2                       # What write queue length does an incoming req see
system.mem_ctrls1.wrQLenPdf::2                      2                       # What write queue length does an incoming req see
system.mem_ctrls1.wrQLenPdf::3                      2                       # What write queue length does an incoming req see
system.mem_ctrls1.wrQLenPdf::4                      2                       # What write queue length does an incoming req see
system.mem_ctrls1.wrQLenPdf::5                      2                       # What write queue length does an incoming req see
system.mem_ctrls1.wrQLenPdf::6                      2                       # What write queue length does an incoming req see
system.mem_ctrls1.wrQLenPdf::7                      2                       # What write queue length does an incoming req see
system.mem_ctrls1.wrQLenPdf::8                      2                       # What write queue length does an incoming req see
system.mem_ctrls1.wrQLenPdf::9                      2                       # What write queue length does an incoming req see
system.mem_ctrls1.wrQLenPdf::10                     2                       # What write queue length does an incoming req see
system.mem_ctrls1.wrQLenPdf::11                     2                       # What write queue length does an incoming req see
system.mem_ctrls1.wrQLenPdf::12                     2                       # What write queue length does an incoming req see
system.mem_ctrls1.wrQLenPdf::13                     2                       # What write queue length does an incoming req see
system.mem_ctrls1.wrQLenPdf::14                     2                       # What write queue length does an incoming req see
system.mem_ctrls1.wrQLenPdf::15                   418                       # What write queue length does an incoming req see
system.mem_ctrls1.wrQLenPdf::16                   437                       # What write queue length does an incoming req see
system.mem_ctrls1.wrQLenPdf::17                   647                       # What write queue length does an incoming req see
system.mem_ctrls1.wrQLenPdf::18                   657                       # What write queue length does an incoming req see
system.mem_ctrls1.wrQLenPdf::19                   658                       # What write queue length does an incoming req see
system.mem_ctrls1.wrQLenPdf::20                   660                       # What write queue length does an incoming req see
system.mem_ctrls1.wrQLenPdf::21                   659                       # What write queue length does an incoming req see
system.mem_ctrls1.wrQLenPdf::22                   661                       # What write queue length does an incoming req see
system.mem_ctrls1.wrQLenPdf::23                   660                       # What write queue length does an incoming req see
system.mem_ctrls1.wrQLenPdf::24                   659                       # What write queue length does an incoming req see
system.mem_ctrls1.wrQLenPdf::25                   659                       # What write queue length does an incoming req see
system.mem_ctrls1.wrQLenPdf::26                   660                       # What write queue length does an incoming req see
system.mem_ctrls1.wrQLenPdf::27                   658                       # What write queue length does an incoming req see
system.mem_ctrls1.wrQLenPdf::28                   660                       # What write queue length does an incoming req see
system.mem_ctrls1.wrQLenPdf::29                   657                       # What write queue length does an incoming req see
system.mem_ctrls1.wrQLenPdf::30                   660                       # What write queue length does an incoming req see
system.mem_ctrls1.wrQLenPdf::31                   656                       # What write queue length does an incoming req see
system.mem_ctrls1.wrQLenPdf::32                   656                       # What write queue length does an incoming req see
system.mem_ctrls1.wrQLenPdf::33                     2                       # What write queue length does an incoming req see
system.mem_ctrls1.wrQLenPdf::34                     0                       # What write queue length does an incoming req see
system.mem_ctrls1.wrQLenPdf::35                     0                       # What write queue length does an incoming req see
system.mem_ctrls1.wrQLenPdf::36                     0                       # What write queue length does an incoming req see
system.mem_ctrls1.wrQLenPdf::37                     0                       # What write queue length does an incoming req see
system.mem_ctrls1.wrQLenPdf::38                     0                       # What write queue length does an incoming req see
system.mem_ctrls1.wrQLenPdf::39                     0                       # What write queue length does an incoming req see
system.mem_ctrls1.wrQLenPdf::40                     0                       # What write queue length does an incoming req see
system.mem_ctrls1.wrQLenPdf::41                     0                       # What write queue length does an incoming req see
system.mem_ctrls1.wrQLenPdf::42                     0                       # What write queue length does an incoming req see
system.mem_ctrls1.wrQLenPdf::43                     0                       # What write queue length does an incoming req see
system.mem_ctrls1.wrQLenPdf::44                     0                       # What write queue length does an incoming req see
system.mem_ctrls1.wrQLenPdf::45                     0                       # What write queue length does an incoming req see
system.mem_ctrls1.wrQLenPdf::46                     0                       # What write queue length does an incoming req see
system.mem_ctrls1.wrQLenPdf::47                     0                       # What write queue length does an incoming req see
system.mem_ctrls1.wrQLenPdf::48                     0                       # What write queue length does an incoming req see
system.mem_ctrls1.wrQLenPdf::49                     0                       # What write queue length does an incoming req see
system.mem_ctrls1.wrQLenPdf::50                     0                       # What write queue length does an incoming req see
system.mem_ctrls1.wrQLenPdf::51                     0                       # What write queue length does an incoming req see
system.mem_ctrls1.wrQLenPdf::52                     0                       # What write queue length does an incoming req see
system.mem_ctrls1.wrQLenPdf::53                     0                       # What write queue length does an incoming req see
system.mem_ctrls1.wrQLenPdf::54                     0                       # What write queue length does an incoming req see
system.mem_ctrls1.wrQLenPdf::55                     0                       # What write queue length does an incoming req see
system.mem_ctrls1.wrQLenPdf::56                     0                       # What write queue length does an incoming req see
system.mem_ctrls1.wrQLenPdf::57                     0                       # What write queue length does an incoming req see
system.mem_ctrls1.wrQLenPdf::58                     0                       # What write queue length does an incoming req see
system.mem_ctrls1.wrQLenPdf::59                     0                       # What write queue length does an incoming req see
system.mem_ctrls1.wrQLenPdf::60                     0                       # What write queue length does an incoming req see
system.mem_ctrls1.wrQLenPdf::61                     0                       # What write queue length does an incoming req see
system.mem_ctrls1.wrQLenPdf::62                     0                       # What write queue length does an incoming req see
system.mem_ctrls1.wrQLenPdf::63                     0                       # What write queue length does an incoming req see
system.mem_ctrls1.bytesPerActivate::samples        46746                       # Bytes accessed per row activation
system.mem_ctrls1.bytesPerActivate::mean   133.518847                       # Bytes accessed per row activation
system.mem_ctrls1.bytesPerActivate::gmean    95.642270                       # Bytes accessed per row activation
system.mem_ctrls1.bytesPerActivate::stdev   161.759556                       # Bytes accessed per row activation
system.mem_ctrls1.bytesPerActivate::0-127        31536     67.46%     67.46% # Bytes accessed per row activation
system.mem_ctrls1.bytesPerActivate::128-255         9197     19.67%     87.14% # Bytes accessed per row activation
system.mem_ctrls1.bytesPerActivate::256-383         2265      4.85%     91.98% # Bytes accessed per row activation
system.mem_ctrls1.bytesPerActivate::384-511         1388      2.97%     94.95% # Bytes accessed per row activation
system.mem_ctrls1.bytesPerActivate::512-639          904      1.93%     96.89% # Bytes accessed per row activation
system.mem_ctrls1.bytesPerActivate::640-767          504      1.08%     97.96% # Bytes accessed per row activation
system.mem_ctrls1.bytesPerActivate::768-895          317      0.68%     98.64% # Bytes accessed per row activation
system.mem_ctrls1.bytesPerActivate::896-1023          176      0.38%     99.02% # Bytes accessed per row activation
system.mem_ctrls1.bytesPerActivate::1024-1151          459      0.98%    100.00% # Bytes accessed per row activation
system.mem_ctrls1.bytesPerActivate::total        46746                       # Bytes accessed per row activation
system.mem_ctrls1.rdPerTurnAround::samples          657                       # Reads before turning the bus around for writes
system.mem_ctrls1.rdPerTurnAround::mean    131.044140                       # Reads before turning the bus around for writes
system.mem_ctrls1.rdPerTurnAround::gmean    78.280817                       # Reads before turning the bus around for writes
system.mem_ctrls1.rdPerTurnAround::stdev  1079.562845                       # Reads before turning the bus around for writes
system.mem_ctrls1.rdPerTurnAround::0-1023          656     99.85%     99.85% # Reads before turning the bus around for writes
system.mem_ctrls1.rdPerTurnAround::27648-28671            1      0.15%    100.00% # Reads before turning the bus around for writes
system.mem_ctrls1.rdPerTurnAround::total          657                       # Reads before turning the bus around for writes
system.mem_ctrls1.wrPerTurnAround::samples          657                       # Writes before turning the bus around for reads
system.mem_ctrls1.wrPerTurnAround::mean     17.328767                       # Writes before turning the bus around for reads
system.mem_ctrls1.wrPerTurnAround::gmean    17.297728                       # Writes before turning the bus around for reads
system.mem_ctrls1.wrPerTurnAround::stdev     1.051267                       # Writes before turning the bus around for reads
system.mem_ctrls1.wrPerTurnAround::16             223     33.94%     33.94% # Writes before turning the bus around for reads
system.mem_ctrls1.wrPerTurnAround::17              16      2.44%     36.38% # Writes before turning the bus around for reads
system.mem_ctrls1.wrPerTurnAround::18             407     61.95%     98.33% # Writes before turning the bus around for reads
system.mem_ctrls1.wrPerTurnAround::19               9      1.37%     99.70% # Writes before turning the bus around for reads
system.mem_ctrls1.wrPerTurnAround::20               1      0.15%     99.85% # Writes before turning the bus around for reads
system.mem_ctrls1.wrPerTurnAround::28               1      0.15%    100.00% # Writes before turning the bus around for reads
system.mem_ctrls1.wrPerTurnAround::total          657                       # Writes before turning the bus around for reads
system.mem_ctrls1.totQLat                  3519573451                       # Total ticks spent queuing
system.mem_ctrls1.totMemAccLat             5134679701                       # Total ticks spent from burst creation until serviced by the DRAM
system.mem_ctrls1.totBusLat                 430695000                       # Total ticks spent in databus transfers
system.mem_ctrls1.avgQLat                    40859.23                       # Average queueing delay per DRAM burst
system.mem_ctrls1.avgBusLat                   5000.00                       # Average bus latency per DRAM burst
system.mem_ctrls1.avgMemAccLat               59609.23                       # Average memory access latency per DRAM burst
system.mem_ctrls1.avgRdBW                        5.14                       # Average DRAM read bandwidth in MiByte/s
system.mem_ctrls1.avgWrBW                        0.68                       # Average achieved write bandwidth in MiByte/s
system.mem_ctrls1.avgRdBWSys                     5.15                       # Average system read bandwidth in MiByte/s
system.mem_ctrls1.avgWrBWSys                     0.68                       # Average system write bandwidth in MiByte/s
system.mem_ctrls1.peakBW                     12800.00                       # Theoretical peak bandwidth in MiByte/s
system.mem_ctrls1.busUtil                        0.05                       # Data bus utilization in percentage
system.mem_ctrls1.busUtilRead                    0.04                       # Data bus utilization in percentage for reads
system.mem_ctrls1.busUtilWrite                   0.01                       # Data bus utilization in percentage for writes
system.mem_ctrls1.avgRdQLen                      1.01                       # Average read queue length when enqueuing
system.mem_ctrls1.avgWrQLen                     17.37                       # Average write queue length when enqueuing
system.mem_ctrls1.readRowHits                   49165                       # Number of row buffer hits during reads
system.mem_ctrls1.writeRowHits                   1612                       # Number of row buffer hits during writes
system.mem_ctrls1.readRowHitRate                57.08                       # Row buffer hit rate for reads
system.mem_ctrls1.writeRowHitRate               14.12                       # Row buffer hit rate for writes
system.mem_ctrls1.avgGap                  10982601.21                       # Average gap between requests
system.mem_ctrls1.pageHitRate                   52.05                       # Row buffer hit rate, read and write combined
system.mem_ctrls1_0.actEnergy               167083140                       # Energy for activate commands per rank (pJ)
system.mem_ctrls1_0.preEnergy                88806795                       # Energy for precharge commands per rank (pJ)
system.mem_ctrls1_0.readEnergy              304927980                       # Energy for read commands per rank (pJ)
system.mem_ctrls1_0.writeEnergy              28595160                       # Energy for write commands per rank (pJ)
system.mem_ctrls1_0.refreshEnergy        6261337680.000001                       # Energy for refresh commands per rank (pJ)
system.mem_ctrls1_0.actBackEnergy          2174610420                       # Energy for active background per rank (pJ)
system.mem_ctrls1_0.preBackEnergy           305063520                       # Energy for precharge background per rank (pJ)
system.mem_ctrls1_0.actPowerDownEnergy    17509436700                       # Energy for active power-down per rank (pJ)
system.mem_ctrls1_0.prePowerDownEnergy     8216637120                       # Energy for precharge power-down per rank (pJ)
system.mem_ctrls1_0.selfRefreshEnergy    242587913115                       # Energy for self refresh per rank (pJ)
system.mem_ctrls1_0.totalEnergy          277645931520                       # Total energy per rank (pJ)
system.mem_ctrls1_0.averagePower           259.068288                       # Core power per rank (mW)
system.mem_ctrls1_0.totalIdleTime        1066142899542                       # Total Idle time Per DRAM Rank
system.mem_ctrls1_0.memoryStateTime::IDLE    549536477                       # Time in different power states
system.mem_ctrls1_0.memoryStateTime::REF   2660139515                       # Time in different power states
system.mem_ctrls1_0.memoryStateTime::SREF 1006347382852                       # Time in different power states
system.mem_ctrls1_0.memoryStateTime::PRE_PDN  21397594124                       # Time in different power states
system.mem_ctrls1_0.memoryStateTime::ACT   2356692083                       # Time in different power states
system.mem_ctrls1_0.memoryStateTime::ACT_PDN  38397922566                       # Time in different power states
system.mem_ctrls1_1.actEnergy               166690440                       # Energy for activate commands per rank (pJ)
system.mem_ctrls1_1.preEnergy                88594275                       # Energy for precharge commands per rank (pJ)
system.mem_ctrls1_1.readEnergy              310104480                       # Energy for read commands per rank (pJ)
system.mem_ctrls1_1.writeEnergy              30834540                       # Energy for write commands per rank (pJ)
system.mem_ctrls1_1.refreshEnergy        6322801680.000001                       # Energy for refresh commands per rank (pJ)
system.mem_ctrls1_1.actBackEnergy          2244052950                       # Energy for active background per rank (pJ)
system.mem_ctrls1_1.preBackEnergy           309691680                       # Energy for precharge background per rank (pJ)
system.mem_ctrls1_1.actPowerDownEnergy    17591919690                       # Energy for active power-down per rank (pJ)
system.mem_ctrls1_1.prePowerDownEnergy     8231278560                       # Energy for precharge power-down per rank (pJ)
system.mem_ctrls1_1.selfRefreshEnergy    242526414345                       # Energy for self refresh per rank (pJ)
system.mem_ctrls1_1.totalEnergy          277824293850                       # Total energy per rank (pJ)
system.mem_ctrls1_1.averagePower           259.234759                       # Core power per rank (mW)
system.mem_ctrls1_1.totalIdleTime        1065973026481                       # Total Idle time Per DRAM Rank
system.mem_ctrls1_1.memoryStateTime::IDLE    561236404                       # Time in different power states
system.mem_ctrls1_1.memoryStateTime::REF   2686608000                       # Time in different power states
system.mem_ctrls1_1.memoryStateTime::SREF 1005962930820                       # Time in different power states
system.mem_ctrls1_1.memoryStateTime::PRE_PDN  21435574840                       # Time in different power states
system.mem_ctrls1_1.memoryStateTime::ACT   2484011185                       # Time in different power states
system.mem_ctrls1_1.memoryStateTime::ACT_PDN  38578906368                       # Time in different power states
system.pwrStateResidencyTicks::UNDEFINED 31083123428667                       # Cumulative time (in ticks) in various power states
system.cpu.branchPred.lookups                       6                       # Number of BP lookups
system.cpu.branchPred.condPredicted                 3                       # Number of conditional branches predicted
system.cpu.branchPred.condIncorrect                 3                       # Number of conditional branches incorrect
system.cpu.branchPred.BTBLookups                    3                       # Number of BTB lookups
system.cpu.branchPred.BTBHits                       0                       # Number of BTB hits
system.cpu.branchPred.BTBCorrect                    0                       # Number of correct BTB predictions (this stat may not work properly.
system.cpu.branchPred.BTBHitPct              0.000000                       # BTB Hit Percentage
system.cpu.branchPred.usedRAS                       0                       # Number of times the RAS was used to get a target.
system.cpu.branchPred.RASInCorrect                  0                       # Number of incorrect RAS predictions.
system.cpu.branchPred.indirectLookups               1                       # Number of indirect predictor lookups.
system.cpu.branchPred.indirectHits                  0                       # Number of indirect target hits.
system.cpu.branchPred.indirectMisses                1                       # Number of indirect misses.
system.cpu.branchPredindirectMispredicted            1                       # Number of mispredicted indirect branches.
system.cpu_voltage_domain.voltage                   1                       # Voltage in Volts
system.cpu_clk_domain.clock                       333                       # Clock period in ticks
system.cpu.dtb.fetch_hits                           0                       # ITB hits
system.cpu.dtb.fetch_misses                         0                       # ITB misses
system.cpu.dtb.fetch_acv                            0                       # ITB acv
system.cpu.dtb.fetch_accesses                       0                       # ITB accesses
system.cpu.dtb.read_hits                            5                       # DTB read hits
system.cpu.dtb.read_misses                          0                       # DTB read misses
system.cpu.dtb.read_acv                             0                       # DTB read access violations
system.cpu.dtb.read_accesses                        5                       # DTB read accesses
system.cpu.dtb.write_hits                           0                       # DTB write hits
system.cpu.dtb.write_misses                         0                       # DTB write misses
system.cpu.dtb.write_acv                            0                       # DTB write access violations
system.cpu.dtb.write_accesses                       0                       # DTB write accesses
system.cpu.dtb.data_hits                            5                       # DTB hits
system.cpu.dtb.data_misses                          0                       # DTB misses
system.cpu.dtb.data_acv                             0                       # DTB access violations
system.cpu.dtb.data_accesses                        5                       # DTB accesses
system.cpu.itb.fetch_hits                           7                       # ITB hits
system.cpu.itb.fetch_misses                         0                       # ITB misses
system.cpu.itb.fetch_acv                            0                       # ITB acv
system.cpu.itb.fetch_accesses                       7                       # ITB accesses
system.cpu.itb.read_hits                            0                       # DTB read hits
system.cpu.itb.read_misses                          0                       # DTB read misses
system.cpu.itb.read_acv                             0                       # DTB read access violations
system.cpu.itb.read_accesses                        0                       # DTB read accesses
system.cpu.itb.write_hits                           0                       # DTB write hits
system.cpu.itb.write_misses                         0                       # DTB write misses
system.cpu.itb.write_acv                            0                       # DTB write access violations
system.cpu.itb.write_accesses                       0                       # DTB write accesses
system.cpu.itb.data_hits                            0                       # DTB hits
system.cpu.itb.data_misses                          0                       # DTB misses
system.cpu.itb.data_acv                             0                       # DTB access violations
system.cpu.itb.data_accesses                        0                       # DTB accesses
system.cpu.workload.num_syscalls                    9                       # Number of system calls
system.cpu.pwrStateResidencyTicks::ON    1071709267617                       # Cumulative time (in ticks) in various power states
system.cpu.numCycles                              733                       # number of cpu cycles simulated
system.cpu.numWorkItemsStarted                      0                       # number of work items this cpu started
system.cpu.numWorkItemsCompleted                    0                       # number of work items this cpu completed
system.cpu.fetch.icacheStallCycles                 50                       # Number of cycles fetch is stalled on an Icache miss
system.cpu.fetch.Insts                             34                       # Number of instructions fetch has processed
system.cpu.fetch.Branches                           6                       # Number of branches that fetch encountered
system.cpu.fetch.Cycles                             5                       # Number of cycles fetch has run and was not squashing or blocked
system.cpu.fetch.SquashCycles                       9                       # Number of cycles fetch has spent squashing
system.cpu.fetch.PendingDrainCycles                 6                       # Number of cycles fetch has spent waiting on pipes to drain
system.cpu.fetch.CacheLines                         7                       # Number of cache lines fetched
system.cpu.fetch.IcacheSquashes                     4                       # Number of outstanding Icache misses that were squashed
system.cpu.fetch.rateDist::samples                 65                       # Number of instructions fetched each cycle (Total)
system.cpu.fetch.rateDist::mean              0.523077                       # Number of instructions fetched each cycle (Total)
system.cpu.fetch.rateDist::stdev             1.880057                       # Number of instructions fetched each cycle (Total)
system.cpu.fetch.rateDist::underflows               0      0.00%      0.00% # Number of instructions fetched each cycle (Total)
system.cpu.fetch.rateDist::0                       60     92.31%     92.31% # Number of instructions fetched each cycle (Total)
system.cpu.fetch.rateDist::1                        0      0.00%     92.31% # Number of instructions fetched each cycle (Total)
system.cpu.fetch.rateDist::2                        0      0.00%     92.31% # Number of instructions fetched each cycle (Total)
system.cpu.fetch.rateDist::3                        0      0.00%     92.31% # Number of instructions fetched each cycle (Total)
system.cpu.fetch.rateDist::4                        1      1.54%     93.85% # Number of instructions fetched each cycle (Total)
system.cpu.fetch.rateDist::5                        0      0.00%     93.85% # Number of instructions fetched each cycle (Total)
system.cpu.fetch.rateDist::6                        1      1.54%     95.38% # Number of instructions fetched each cycle (Total)
system.cpu.fetch.rateDist::7                        0      0.00%     95.38% # Number of instructions fetched each cycle (Total)
system.cpu.fetch.rateDist::8                        3      4.62%    100.00% # Number of instructions fetched each cycle (Total)
system.cpu.fetch.rateDist::overflows                0      0.00%    100.00% # Number of instructions fetched each cycle (Total)
system.cpu.fetch.rateDist::min_value                0                       # Number of instructions fetched each cycle (Total)
system.cpu.fetch.rateDist::max_value                8                       # Number of instructions fetched each cycle (Total)
[...]
system.switch_cpus_1.iq.int_inst_queue_wakeup_accesses    235692426                       # Number of integer instruction queue wakeup accesses
system.switch_cpus_1.iq.fp_inst_queue_reads       482794                       # Number of floating instruction queue reads
system.switch_cpus_1.iq.fp_inst_queue_writes       345143                       # Number of floating instruction queue writes
system.switch_cpus_1.iq.fp_inst_queue_wakeup_accesses       213716                       # Number of floating instruction queue wakeup accesses
system.switch_cpus_1.iq.int_alu_accesses    249169192                       # Number of integer alu accesses
system.switch_cpus_1.iq.fp_alu_accesses        248201                       # Number of floating point alu accesses
system.switch_cpus_1.iew.lsq.thread0.forwLoads      8585636                       # Number of loads that had data forwarded from stores
system.switch_cpus_1.iew.lsq.thread0.invAddrLoads            0                       # Number of loads ignored due to an invalid address
system.switch_cpus_1.iew.lsq.thread0.squashedLoads     24817848                       # Number of loads squashed
system.switch_cpus_1.iew.lsq.thread0.ignoredResponses        41321                       # Number of memory responses ignored because the instruction is squashed
system.switch_cpus_1.iew.lsq.thread0.memOrderViolation        82481                       # Number of memory ordering violations
system.switch_cpus_1.iew.lsq.thread0.squashedStores     10637193                       # Number of stores squashed
system.switch_cpus_1.iew.lsq.thread0.invAddrSwpfs            0                       # Number of software prefetches ignored due to an invalid address
system.switch_cpus_1.iew.lsq.thread0.blockedLoads            0                       # Number of blocked loads due to partial load-store forwarding
system.switch_cpus_1.iew.lsq.thread0.rescheduledLoads           50                       # Number of loads that were rescheduled
system.switch_cpus_1.iew.lsq.thread0.cacheBlocked       160324                       # Number of times an access to memory failed due to the cache being blocked
system.switch_cpus_1.iew.iewIdleCycles              0                       # Number of cycles IEW is idle
system.switch_cpus_1.iew.iewSquashCycles      2076513                       # Number of cycles IEW is squashing
system.switch_cpus_1.iew.iewBlockCycles      16695269                       # Number of cycles IEW is blocking
system.switch_cpus_1.iew.iewUnblockCycles     11257487                       # Number of cycles IEW is unblocking
system.switch_cpus_1.iew.iewDispatchedInsts    280951009                       # Number of instructions dispatched to IQ
system.switch_cpus_1.iew.iewDispSquashedInsts       640163                       # Number of squashed instructions skipped by dispatch
system.switch_cpus_1.iew.iewDispLoadInsts     89925376                       # Number of dispatched load instructions
system.switch_cpus_1.iew.iewDispStoreInsts     38809154                       # Number of dispatched store instructions
system.switch_cpus_1.iew.iewDispNonSpecInsts        84641                       # Number of dispatched non-speculative instructions
system.switch_cpus_1.iew.iewIQFullEvents       348275                       # Number of times the IQ has become full, causing a stall
system.switch_cpus_1.iew.iewLSQFullEvents     10930846                       # Number of times the LSQ has become full, causing a stall
system.switch_cpus_1.iew.memOrderViolationEvents        82481                       # Number of memory order violations
system.switch_cpus_1.iew.predictedTakenIncorrect       931909                       # Number of branches that were predicted taken incorrectly
system.switch_cpus_1.iew.predictedNotTakenIncorrect       733967                       # Number of branches that were predicted not taken incorrectly
system.switch_cpus_1.iew.branchMispredicts      1665876                       # Number of branch mispredicts detected at execute
system.switch_cpus_1.iew.iewExecutedInsts    239271518                       # Number of executed instructions
system.switch_cpus_1.iew.iewExecLoadInsts     78338381                       # Number of load instructions executed
system.switch_cpus_1.iew.iewExecSquashedInsts      2918848                       # Number of squashed instructions skipped in execute
system.switch_cpus_1.iew.exec_swp                   0                       # number of swp insts executed
system.switch_cpus_1.iew.exec_nop             6955016                       # number of nop insts executed
system.switch_cpus_1.iew.exec_refs          112525121                       # number of memory reference insts executed
system.switch_cpus_1.iew.exec_branches       39846965                       # Number of branches executed
system.switch_cpus_1.iew.exec_stores         34186740                       # Number of stores executed
system.switch_cpus_1.iew.exec_rate           1.208384                       # Inst execution rate
system.switch_cpus_1.iew.wb_sent            237822915                       # cumulative count of insts sent to commit
system.switch_cpus_1.iew.wb_count           235906142                       # cumulative count of insts written-back
system.switch_cpus_1.iew.wb_producers       131528888                       # num instructions producing a value
system.switch_cpus_1.iew.wb_consumers       175101703                       # num instructions consuming a value
system.switch_cpus_1.iew.wb_rate             1.191388                       # insts written-back per cycle
system.switch_cpus_1.iew.wb_fanout           0.751157                       # average fanout of values written-back
system.switch_cpus_1.commit.commitSquashedInsts     68151987                       # The number of squashed insts skipped by commit
system.switch_cpus_1.commit.commitNonSpecStalls       131982                       # The number of times commit has been forced to stall to communicate backwards
system.switch_cpus_1.commit.branchMispredicts      1456299                       # The number of times a branch was mispredicted
system.switch_cpus_1.commit.committed_per_cycle::samples    175192557                       # Number of insts commited each cycle
system.switch_cpus_1.commit.committed_per_cycle::mean     1.168828                       # Number of insts commited each cycle
system.switch_cpus_1.commit.committed_per_cycle::stdev     2.254665                       # Number of insts commited each cycle
system.switch_cpus_1.commit.committed_per_cycle::underflows            0      0.00%      0.00% # Number of insts commited each cycle
system.switch_cpus_1.commit.committed_per_cycle::0    113832039     64.98%     64.98% # Number of insts commited each cycle
system.switch_cpus_1.commit.committed_per_cycle::1     25457095     14.53%     79.51% # Number of insts commited each cycle
system.switch_cpus_1.commit.committed_per_cycle::2      9025863      5.15%     84.66% # Number of insts commited each cycle
system.switch_cpus_1.commit.committed_per_cycle::3      4129556      2.36%     87.02% # Number of insts commited each cycle
system.switch_cpus_1.commit.committed_per_cycle::4      3877813      2.21%     89.23% # Number of insts commited each cycle
system.switch_cpus_1.commit.committed_per_cycle::5      3303943      1.89%     91.11% # Number of insts commited each cycle
system.switch_cpus_1.commit.committed_per_cycle::6      2825227      1.61%     92.73% # Number of insts commited each cycle
system.switch_cpus_1.commit.committed_per_cycle::7      2037941      1.16%     93.89% # Number of insts commited each cycle
system.switch_cpus_1.commit.committed_per_cycle::8     10703080      6.11%    100.00% # Number of insts commited each cycle
system.switch_cpus_1.commit.committed_per_cycle::overflows            0      0.00%    100.00% # Number of insts commited each cycle
system.switch_cpus_1.commit.committed_per_cycle::min_value            0                       # Number of insts commited each cycle
system.switch_cpus_1.commit.committed_per_cycle::max_value            8                       # Number of insts commited each cycle
system.switch_cpus_1.commit.committed_per_cycle::total    175192557                       # Number of insts commited each cycle
system.switch_cpus_1.commit.committedInsts    204770045                       # Number of instructions committed
system.switch_cpus_1.commit.committedOps    204770045                       # Number of ops (including micro ops) committed
system.switch_cpus_1.commit.swp_count               0                       # Number of s/w prefetches committed
system.switch_cpus_1.commit.refs             93279484                       # Number of memory references committed
system.switch_cpus_1.commit.loads            65107527                       # Number of loads committed
system.switch_cpus_1.commit.membars             65988                       # Number of memory barriers committed
system.switch_cpus_1.commit.branches         33714070                       # Number of branches committed
system.switch_cpus_1.commit.fp_insts           159557                       # Number of committed floating point instructions.
system.switch_cpus_1.commit.int_insts       196778837                       # Number of committed integer instructions.
system.switch_cpus_1.commit.function_calls      2336737                       # Number of function calls committed.
system.switch_cpus_1.commit.op_class_0::No_OpClass      4770592      2.33%      2.33% # Class of committed instruction
system.switch_cpus_1.commit.op_class_0::IntAlu    106615487     52.07%     54.40% # Class of committed instruction
system.switch_cpus_1.commit.op_class_0::IntMult         2354      0.00%     54.40% # Class of committed instruction
system.switch_cpus_1.commit.op_class_0::IntDiv            0      0.00%     54.40% # Class of committed instruction
system.switch_cpus_1.commit.op_class_0::FloatAdd        29677      0.01%     54.41% # Class of committed instruction
system.switch_cpus_1.commit.op_class_0::FloatCmp         2802      0.00%     54.41% # Class of committed instruction
system.switch_cpus_1.commit.op_class_0::FloatCvt         2757      0.00%     54.41% # Class of committed instruction
system.switch_cpus_1.commit.op_class_0::FloatMult          480      0.00%     54.41% # Class of committed instruction
system.switch_cpus_1.commit.op_class_0::FloatMultAcc            0      0.00%     54.41% # Class of committed instruction
system.switch_cpus_1.commit.op_class_0::FloatDiv          424      0.00%     54.41% # Class of committed instruction
system.switch_cpus_1.commit.op_class_0::FloatMisc            0      0.00%     54.41% # Class of committed instruction
system.switch_cpus_1.commit.op_class_0::FloatSqrt            0      0.00%     54.41% # Class of committed instruction
system.switch_cpus_1.commit.op_class_0::SimdAdd            0      0.00%     54.41% # Class of committed instruction
system.switch_cpus_1.commit.op_class_0::SimdAddAcc            0      0.00%     54.41% # Class of committed instruction
system.switch_cpus_1.commit.op_class_0::SimdAlu            0      0.00%     54.41% # Class of committed instruction
system.switch_cpus_1.commit.op_class_0::SimdCmp            0      0.00%     54.41% # Class of committed instruction
system.switch_cpus_1.commit.op_class_0::SimdCvt            0      0.00%     54.41% # Class of committed instruction
system.switch_cpus_1.commit.op_class_0::SimdMisc            0      0.00%     54.41% # Class of committed instruction
system.switch_cpus_1.commit.op_class_0::SimdMult            0      0.00%     54.41% # Class of committed instruction
system.switch_cpus_1.commit.op_class_0::SimdMultAcc            0      0.00%     54.41% # Class of committed instruction
system.switch_cpus_1.commit.op_class_0::SimdShift            0      0.00%     54.41% # Class of committed instruction
system.switch_cpus_1.commit.op_class_0::SimdShiftAcc            0      0.00%     54.41% # Class of committed instruction
system.switch_cpus_1.commit.op_class_0::SimdSqrt            0      0.00%     54.41% # Class of committed instruction
system.switch_cpus_1.commit.op_class_0::SimdFloatAdd            0      0.00%     54.41% # Class of committed instruction
system.switch_cpus_1.commit.op_class_0::SimdFloatAlu            0      0.00%     54.41% # Class of committed instruction
system.switch_cpus_1.commit.op_class_0::SimdFloatCmp            0      0.00%     54.41% # Class of committed instruction
system.switch_cpus_1.commit.op_class_0::SimdFloatCvt            0      0.00%     54.41% # Class of committed instruction
system.switch_cpus_1.commit.op_class_0::SimdFloatDiv            0      0.00%     54.41% # Class of committed instruction
system.switch_cpus_1.commit.op_class_0::SimdFloatMisc            0      0.00%     54.41% # Class of committed instruction
system.switch_cpus_1.commit.op_class_0::SimdFloatMult            0      0.00%     54.41% # Class of committed instruction
system.switch_cpus_1.commit.op_class_0::SimdFloatMultAcc            0      0.00%     54.41% # Class of committed instruction
system.switch_cpus_1.commit.op_class_0::SimdFloatSqrt            0      0.00%     54.41% # Class of committed instruction
system.switch_cpus_1.commit.op_class_0::MemRead     65122112     31.80%     86.22% # Class of committed instruction
system.switch_cpus_1.commit.op_class_0::MemWrite     28099943     13.72%     99.94% # Class of committed instruction
system.switch_cpus_1.commit.op_class_0::FloatMemRead        51403      0.03%     99.96% # Class of committed instruction
system.switch_cpus_1.commit.op_class_0::FloatMemWrite        72014      0.04%    100.00% # Class of committed instruction
system.switch_cpus_1.commit.op_class_0::IprAccess            0      0.00%    100.00% # Class of committed instruction
system.switch_cpus_1.commit.op_class_0::InstPrefetch            0      0.00%    100.00% # Class of committed instruction
system.switch_cpus_1.commit.op_class_0::total    204770045                       # Class of committed instruction
system.switch_cpus_1.commit.bw_lim_events     10703080                       # number cycles where commit BW limit reached
system.switch_cpus_1.rob.rob_reads          430185680                       # The number of ROB reads
system.switch_cpus_1.rob.rob_writes         555844750                       # The number of ROB writes
system.switch_cpus_1.timesIdled               1311756                       # Number of times that the entire CPU went into an idle state and unscheduled itself
system.switch_cpus_1.idleCycles              12839026                       # Total number of cycles that the CPU has spent unscheduled due to idling
system.switch_cpus_1.committedInsts         200000002                       # Number of Instructions Simulated
system.switch_cpus_1.committedOps           200000002                       # Number of Ops (including micro ops) Simulated
system.switch_cpus_1.cpi                     0.990048                       # CPI: Cycles Per Instruction
system.switch_cpus_1.cpi_total               0.990048                       # CPI: Total CPI of All Threads
system.switch_cpus_1.ipc                     1.010052                       # IPC: Instructions Per Cycle
system.switch_cpus_1.ipc_total               1.010052                       # IPC: Total IPC of All Threads
system.switch_cpus_1.int_regfile_reads      304334995                       # number of integer regfile reads
system.switch_cpus_1.int_regfile_writes     165727775                       # number of integer regfile writes
system.switch_cpus_1.fp_regfile_reads          181214                       # number of floating regfile reads
system.switch_cpus_1.fp_regfile_writes         106205                       # number of floating regfile writes
system.switch_cpus_1.misc_regfile_reads        151470                       # number of misc regfile reads
system.switch_cpus_1.misc_regfile_writes       132243                       # number of misc regfile writes
system.tol3bus.snoop_filter.tot_requests      1296643                       # Total number of requests made to the snoop filter.
system.tol3bus.snoop_filter.hit_single_requests       646282                       # Number of requests hitting in the snoop filter with a single holder of the requested data.
system.tol3bus.snoop_filter.hit_multi_requests            0                       # Number of requests hitting in the snoop filter with multiple (>1) holders of the requested data.
system.tol3bus.snoop_filter.tot_snoops            514                       # Total number of snoops made to the snoop filter.
system.tol3bus.snoop_filter.hit_single_snoops          514                       # Number of snoops hitting in the snoop filter with a single holder of the requested data.
system.tol3bus.snoop_filter.hit_multi_snoops            0                       # Number of snoops hitting in the snoop filter with multiple (>1) holders of the requested data.
system.tol3bus.pwrStateResidencyTicks::UNDEFINED 31083123428667                       # Cumulative time (in ticks) in various power states
system.tol3bus.trans_dist::ReadResp            579285                       # Transaction distribution
system.tol3bus.trans_dist::WritebackDirty       197415                       # Transaction distribution
system.tol3bus.trans_dist::CleanEvict          555348                       # Transaction distribution
system.tol3bus.trans_dist::UpgradeReq               2                       # Transaction distribution
system.tol3bus.trans_dist::UpgradeResp              2                       # Transaction distribution
system.tol3bus.trans_dist::ReadExReq            71076                       # Transaction distribution
system.tol3bus.trans_dist::ReadExResp           71076                       # Transaction distribution
system.tol3bus.trans_dist::ReadSharedReq       579285                       # Transaction distribution
system.tol3bus.pkt_count_system.cpu.l2.mem_side::system.l3.cpu_side      1947006                       # Packet count per connected master and slave (bytes)
system.tol3bus.pkt_size_system.cpu.l2.mem_side::system.l3.cpu_side     52792128                       # Cumulative packet size per connected master and slave (bytes)
system.tol3bus.snoops                          106483                       # Total snoops (count)
system.tol3bus.snoopTraffic                   1465536                       # Total snoop traffic (bytes)
system.tol3bus.snoop_fanout::samples           756846                       # Request fanout histogram
system.tol3bus.snoop_fanout::mean            0.000679                       # Request fanout histogram
system.tol3bus.snoop_fanout::stdev           0.026051                       # Request fanout histogram
system.tol3bus.snoop_fanout::underflows             0      0.00%      0.00% # Request fanout histogram
system.tol3bus.snoop_fanout::0                 756332     99.93%     99.93% # Request fanout histogram
system.tol3bus.snoop_fanout::1                    514      0.07%    100.00% # Request fanout histogram
system.tol3bus.snoop_fanout::overflows              0      0.00%    100.00% # Request fanout histogram
system.tol3bus.snoop_fanout::min_value              0                       # Request fanout histogram
system.tol3bus.snoop_fanout::max_value              1                       # Request fanout histogram
system.tol3bus.snoop_fanout::total             756846                       # Request fanout histogram
system.tol3bus.reqLayer0.occupancy          489895947                       # Layer occupancy (ticks)
system.tol3bus.reqLayer0.utilization              0.0                       # Layer utilization (%)
system.tol3bus.respLayer0.occupancy         433141092                       # Layer occupancy (ticks)
system.tol3bus.respLayer0.utilization             0.0                       # Layer utilization (%)

---------- End Simulation Statistics   ----------
