
---------- Begin Simulation Statistics ----------
sim_seconds                                  1.154640                       # Number of seconds simulated
sim_ticks                                1154639656881                       # Number of ticks simulated
final_tick                               18807981047811                       # Number of ticks from beginning of simulation (restored from checkpoints and never reset)
sim_freq                                 1000000000000                       # Frequency of simulated ticks
host_inst_rate                                 615751                       # Simulator instruction rate (inst/s)
host_op_rate                                   615751                       # Simulator op (including micro ops) rate (op/s)
host_tick_rate                              592475110                       # Simulator tick rate (ticks/s)
host_mem_usage                                2396268                       # Number of bytes of host memory used
host_seconds                                  1948.84                       # Real time elapsed on the host
sim_insts                                  1200000011                       # Number of instructions simulated
sim_ops                                    1200000011                       # Number of ops (including micro ops) simulated
system.voltage_domain.voltage                       1                       # Voltage in Volts
system.clk_domain.clock                          1000                       # Clock period in ticks
system.mem_ctrls0.pwrStateResidencyTicks::UNDEFINED 18807981047811                       # Cumulative time (in ticks) in various power states
system.mem_ctrls0.bytes_read::cpu.inst            192                       # Number of bytes read from this memory
system.mem_ctrls0.bytes_read::switch_cpus.inst       114112                       # Number of bytes read from this memory
system.mem_ctrls0.bytes_read::switch_cpus.data      8011840                       # Number of bytes read from this memory
system.mem_ctrls0.bytes_read::switch_cpus_1.inst        13504                       # Number of bytes read from this memory
system.mem_ctrls0.bytes_read::switch_cpus_1.data      1358528                       # Number of bytes read from this memory
system.mem_ctrls0.bytes_read::total           9498176                       # Number of bytes read from this memory
system.mem_ctrls0.bytes_inst_read::cpu.inst          192                       # Number of instructions bytes read from this memory
system.mem_ctrls0.bytes_inst_read::switch_cpus.inst       114112                       # Number of instructions bytes read from this memory
system.mem_ctrls0.bytes_inst_read::switch_cpus_1.inst        13504                       # Number of instructions bytes read from this memory
system.mem_ctrls0.bytes_inst_read::total       127808                       # Number of instructions bytes read from this memory
system.mem_ctrls0.bytes_written::writebacks      5914496                       # Number of bytes written to this memory
system.mem_ctrls0.bytes_written::total        5914496                       # Number of bytes written to this memory
system.mem_ctrls0.num_reads::cpu.inst               3                       # Number of read requests responded to by this memory
system.mem_ctrls0.num_reads::switch_cpus.inst         1783                       # Number of read requests responded to by this memory
system.mem_ctrls0.num_reads::switch_cpus.data       125185                       # Number of read requests responded to by this memory
system.mem_ctrls0.num_reads::switch_cpus_1.inst          211                       # Number of read requests responded to by this memory
system.mem_ctrls0.num_reads::switch_cpus_1.data        21227                       # Number of read requests responded to by this memory
system.mem_ctrls0.num_reads::total             148409                       # Number of read requests responded to by this memory
system.mem_ctrls0.num_writes::writebacks        92414                       # Number of write requests responded to by this memory
system.mem_ctrls0.num_writes::total             92414                       # Number of write requests responded to by this memory
system.mem_ctrls0.bw_read::cpu.inst               166                       # Total read bandwidth from this memory (bytes/s)
system.mem_ctrls0.bw_read::switch_cpus.inst        98829                       # Total read bandwidth from this memory (bytes/s)
system.mem_ctrls0.bw_read::switch_cpus.data      6938823                       # Total read bandwidth from this memory (bytes/s)
system.mem_ctrls0.bw_read::switch_cpus_1.inst        11695                       # Total read bandwidth from this memory (bytes/s)
system.mem_ctrls0.bw_read::switch_cpus_1.data      1176582                       # Total read bandwidth from this memory (bytes/s)
system.mem_ctrls0.bw_read::total              8226095                       # Total read bandwidth from this memory (bytes/s)
system.mem_ctrls0.bw_inst_read::cpu.inst          166                       # Instruction read bandwidth from this memory (bytes/s)
system.mem_ctrls0.bw_inst_read::switch_cpus.inst        98829                       # Instruction read bandwidth from this memory (bytes/s)
system.mem_ctrls0.bw_inst_read::switch_cpus_1.inst        11695                       # Instruction read bandwidth from this memory (bytes/s)
system.mem_ctrls0.bw_inst_read::total          110691                       # Instruction read bandwidth from this memory (bytes/s)
system.mem_ctrls0.bw_write::writebacks        5122374                       # Write bandwidth from this memory (bytes/s)
system.mem_ctrls0.bw_write::total             5122374                       # Write bandwidth from this memory (bytes/s)
system.mem_ctrls0.bw_total::writebacks        5122374                       # Total bandwidth to/from this memory (bytes/s)
system.mem_ctrls0.bw_total::cpu.inst              166                       # Total bandwidth to/from this memory (bytes/s)
system.mem_ctrls0.bw_total::switch_cpus.inst        98829                       # Total bandwidth to/from this memory (bytes/s)
system.mem_ctrls0.bw_total::switch_cpus.data      6938823                       # Total bandwidth to/from this memory (bytes/s)
system.mem_ctrls0.bw_total::switch_cpus_1.inst        11695                       # Total bandwidth to/from this memory (bytes/s)
system.mem_ctrls0.bw_total::switch_cpus_1.data      1176582                       # Total bandwidth to/from this memory (bytes/s)
system.mem_ctrls0.bw_total::total            13348469                       # Total bandwidth to/from this memory (bytes/s)
system.mem_ctrls0.readReqs                     148409                       # Number of read requests accepted
system.mem_ctrls0.writeReqs                     92414                       # Number of write requests accepted
system.mem_ctrls0.readBursts                   148409                       # Number of DRAM read bursts, including those serviced by the write queue
system.mem_ctrls0.writeBursts                   92414                       # Number of DRAM write bursts, including those merged in the write queue
system.mem_ctrls0.bytesReadDRAM               9492928                       # Total number of bytes read from DRAM
system.mem_ctrls0.bytesReadWrQ                   5248                       # Total number of bytes read from write queue
system.mem_ctrls0.bytesWritten                5913088                       # Total number of bytes written to DRAM
system.mem_ctrls0.bytesReadSys                9498176                       # Total read bytes from the system interface side
system.mem_ctrls0.bytesWrittenSys             5914496                       # Total written bytes from the system interface side
system.mem_ctrls0.servicedByWrQ                    82                       # Number of DRAM read bursts serviced by the write queue
system.mem_ctrls0.mergedWrBursts                    0                       # Number of DRAM write bursts merged with an existing one
system.mem_ctrls0.neitherReadNorWriteReqs            0                       # Number of requests that are neither read nor write
system.mem_ctrls0.perBankRdBursts::0             8977                       # Per bank write bursts
system.mem_ctrls0.perBankRdBursts::1             9290                       # Per bank write bursts
system.mem_ctrls0.perBankRdBursts::2             9300                       # Per bank write bursts
system.mem_ctrls0.perBankRdBursts::3             9820                       # Per bank write bursts
system.mem_ctrls0.perBankRdBursts::4             9822                       # Per bank write bursts
system.mem_ctrls0.perBankRdBursts::5             9448                       # Per bank write bursts
system.mem_ctrls0.perBankRdBursts::6             8868                       # Per bank write bursts
system.mem_ctrls0.perBankRdBursts::7             8982                       # Per bank write bursts
system.mem_ctrls0.perBankRdBursts::8             9490                       # Per bank write bursts
system.mem_ctrls0.perBankRdBursts::9             9682                       # Per bank write bursts
system.mem_ctrls0.perBankRdBursts::10            9075                       # Per bank write bursts
system.mem_ctrls0.perBankRdBursts::11            9446                       # Per bank write bursts
system.mem_ctrls0.perBankRdBursts::12            9263                       # Per bank write bursts
system.mem_ctrls0.perBankRdBursts::13            9089                       # Per bank write bursts
system.mem_ctrls0.perBankRdBursts::14            9033                       # Per bank write bursts
system.mem_ctrls0.perBankRdBursts::15            8742                       # Per bank write bursts
system.mem_ctrls0.perBankWrBursts::0             5870                       # Per bank write bursts
system.mem_ctrls0.perBankWrBursts::1             6033                       # Per bank write bursts
system.mem_ctrls0.perBankWrBursts::2             5836                       # Per bank write bursts
system.mem_ctrls0.perBankWrBursts::3             6126                       # Per bank write bursts
system.mem_ctrls0.perBankWrBursts::4             6087                       # Per bank write bursts
system.mem_ctrls0.perBankWrBursts::5             5880                       # Per bank write bursts
system.mem_ctrls0.perBankWrBursts::6             5372                       # Per bank write bursts
system.mem_ctrls0.perBankWrBursts::7             5431                       # Per bank write bursts
system.mem_ctrls0.perBankWrBursts::8             5497                       # Per bank write bursts
system.mem_ctrls0.perBankWrBursts::9             5636                       # Per bank write bursts
system.mem_ctrls0.perBankWrBursts::10            5771                       # Per bank write bursts
system.mem_ctrls0.perBankWrBursts::11            6165                       # Per bank write bursts
system.mem_ctrls0.perBankWrBursts::12            5888                       # Per bank write bursts
system.mem_ctrls0.perBankWrBursts::13            5654                       # Per bank write bursts
system.mem_ctrls0.perBankWrBursts::14            5598                       # Per bank write bursts
system.mem_ctrls0.perBankWrBursts::15            5548                       # Per bank write bursts
system.mem_ctrls0.numRdRetry                        0                       # Number of times read queue was full causing retry
system.mem_ctrls0.numWrRetry                        0                       # Number of times write queue was full causing retry
system.mem_ctrls0.totGap                 1154638255950                       # Total gap between requests
system.mem_ctrls0.readPktSize::0                    0                       # Read request sizes (log2)
system.mem_ctrls0.readPktSize::1                    0                       # Read request sizes (log2)
system.mem_ctrls0.readPktSize::2                    0                       # Read request sizes (log2)
system.mem_ctrls0.readPktSize::3                    0                       # Read request sizes (log2)
system.mem_ctrls0.readPktSize::4                    0                       # Read request sizes (log2)
system.mem_ctrls0.readPktSize::5                    0                       # Read request sizes (log2)
system.mem_ctrls0.readPktSize::6               148409                       # Read request sizes (log2)
system.mem_ctrls0.writePktSize::0                   0                       # Write request sizes (log2)
system.mem_ctrls0.writePktSize::1                   0                       # Write request sizes (log2)
system.mem_ctrls0.writePktSize::2                   0                       # Write request sizes (log2)
system.mem_ctrls0.writePktSize::3                   0                       # Write request sizes (log2)
system.mem_ctrls0.writePktSize::4                   0                       # Write request sizes (log2)
system.mem_ctrls0.writePktSize::5                   0                       # Write request sizes (log2)
system.mem_ctrls0.writePktSize::6               92414                       # Write request sizes (log2)
system.mem_ctrls0.rdQLenPdf::0                 146758                       # What read queue length does an incoming req see
system.mem_ctrls0.rdQLenPdf::1                   1543                       # What read queue length does an incoming req see
system.mem_ctrls0.rdQLenPdf::2                     26                       # What read queue length does an incoming req see
system.mem_ctrls0.rdQLenPdf::3                      0                       # What read queue length does an incoming req see
system.mem_ctrls0.rdQLenPdf::4                      0                       # What read queue length does an incoming req see
system.mem_ctrls0.rdQLenPdf::5                      0                       # What read queue length does an incoming req see
system.mem_ctrls0.rdQLenPdf::6                      0                       # What read queue length does an incoming req see
system.mem_ctrls0.rdQLenPdf::7                      0                       # What read queue length does an incoming req see
system.mem_ctrls0.rdQLenPdf::8                      0                       # What read queue length does an incoming req see
system.mem_ctrls0.rdQLenPdf::9                      0                       # What read queue length does an incoming req see
system.mem_ctrls0.rdQLenPdf::10                     0                       # What read queue length does an incoming req see
system.mem_ctrls0.rdQLenPdf::11                     0                       # What read queue length does an incoming req see
system.mem_ctrls0.rdQLenPdf::12                     0                       # What read queue length does an incoming req see
system.mem_ctrls0.rdQLenPdf::13                     0                       # What read queue length does an incoming req see
system.mem_ctrls0.rdQLenPdf::14                     0                       # What read queue length does an incoming req see
system.mem_ctrls0.rdQLenPdf::15                     0                       # What read queue length does an incoming req see
system.mem_ctrls0.rdQLenPdf::16                     0                       # What read queue length does an incoming req see
system.mem_ctrls0.rdQLenPdf::17                     0                       # What read queue length does an incoming req see
system.mem_ctrls0.rdQLenPdf::18                     0                       # What read queue length does an incoming req see
system.mem_ctrls0.rdQLenPdf::19                     0                       # What read queue length does an incoming req see
system.mem_ctrls0.rdQLenPdf::20                     0                       # What read queue length does an incoming req see
system.mem_ctrls0.rdQLenPdf::21                     0                       # What read queue length does an incoming req see
system.mem_ctrls0.rdQLenPdf::22                     0                       # What read queue length does an incoming req see
system.mem_ctrls0.rdQLenPdf::23                     0                       # What read queue length does an incoming req see
system.mem_ctrls0.rdQLenPdf::24                     0                       # What read queue length does an incoming req see
system.mem_ctrls0.rdQLenPdf::25                     0                       # What read queue length does an incoming req see
system.mem_ctrls0.rdQLenPdf::26                     0                       # What read queue length does an incoming req see
system.mem_ctrls0.rdQLenPdf::27                     0                       # What read queue length does an incoming req see
system.mem_ctrls0.rdQLenPdf::28                     0                       # What read queue length does an incoming req see
system.mem_ctrls0.rdQLenPdf::29                     0                       # What read queue length does an incoming req see
system.mem_ctrls0.rdQLenPdf::30                     0                       # What read queue length does an incoming req see
system.mem_ctrls0.rdQLenPdf::31                     0                       # What read queue length does an incoming req see
system.mem_ctrls0.wrQLenPdf::0                      2                       # What write queue length does an incoming req see
system.mem_ctrls0.wrQLenPdf::1                      2                       # What write queue length does an incoming req see
system.mem_ctrls0.wrQLenPdf::2                      2                       # What write queue length does an incoming req see
system.mem_ctrls0.wrQLenPdf::3                      2                       # What write queue length does an incoming req see
system.mem_ctrls0.wrQLenPdf::4                      2                       # What write queue length does an incoming req see
system.mem_ctrls0.wrQLenPdf::5                      2                       # What write queue length does an incoming req see
system.mem_ctrls0.wrQLenPdf::6                      2                       # What write queue length does an incoming req see
system.mem_ctrls0.wrQLenPdf::7                      2                       # What write queue length does an incoming req see
system.mem_ctrls0.wrQLenPdf::8                      2                       # What write queue length does an incoming req see
system.mem_ctrls0.wrQLenPdf::9                      2                       # What write queue length does an incoming req see
system.mem_ctrls0.wrQLenPdf::10                     2                       # What write queue length does an incoming req see
system.mem_ctrls0.wrQLenPdf::11                     2                       # What write queue length does an incoming req see
system.mem_ctrls0.wrQLenPdf::12                     2                       # What write queue length does an incoming req see
system.mem_ctrls0.wrQLenPdf::13                     2                       # What write queue length does an incoming req see
system.mem_ctrls0.wrQLenPdf::14                     2                       # What write queue length does an incoming req see
system.mem_ctrls0.wrQLenPdf::15                  4454                       # What write queue length does an incoming req see
system.mem_ctrls0.wrQLenPdf::16                  4530                       # What write queue length does an incoming req see
system.mem_ctrls0.wrQLenPdf::17                  5152                       # What write queue length does an incoming req see
system.mem_ctrls0.wrQLenPdf::18                  5205                       # What write queue length does an incoming req see
system.mem_ctrls0.wrQLenPdf::19                  5201                       # What write queue length does an incoming req see
system.mem_ctrls0.wrQLenPdf::20                  5211                       # What write queue length does an incoming req see
system.mem_ctrls0.wrQLenPdf::21                  5222                       # What write queue length does an incoming req see
system.mem_ctrls0.wrQLenPdf::22                  5226                       # What write queue length does an incoming req see
system.mem_ctrls0.wrQLenPdf::23                  5228                       # What write queue length does an incoming req see
system.mem_ctrls0.wrQLenPdf::24                  5218                       # What write queue length does an incoming req see
system.mem_ctrls0.wrQLenPdf::25                  5209                       # What write queue length does an incoming req see
system.mem_ctrls0.wrQLenPdf::26                  5214                       # What write queue length does an incoming req see
system.mem_ctrls0.wrQLenPdf::27                  5209                       # What write queue length does an incoming req see
system.mem_ctrls0.wrQLenPdf::28                  5204                       # What write queue length does an incoming req see
system.mem_ctrls0.wrQLenPdf::29                  5196                       # What write queue length does an incoming req see
system.mem_ctrls0.wrQLenPdf::30                  5204                       # What write queue length does an incoming req see
system.mem_ctrls0.wrQLenPdf::31                  5189                       # What write queue length does an incoming req see
system.mem_ctrls0.wrQLenPdf::32                  5188                       # What write queue length does an incoming req see
system.mem_ctrls0.wrQLenPdf::33                   107                       # What write queue length does an incoming req see
system.mem_ctrls0.wrQLenPdf::34                    15                       # What write queue length does an incoming req see
system.mem_ctrls0.wrQLenPdf::35                     2                       # What write queue length does an incoming req see
system.mem_ctrls0.wrQLenPdf::36                     0                       # What write queue length does an incoming req see
system.mem_ctrls0.wrQLenPdf::37                     0                       # What write queue length does an incoming req see
system.mem_ctrls0.wrQLenPdf::38                     0                       # What write queue length does an incoming req see
system.mem_ctrls0.wrQLenPdf::39                     0                       # What write queue length does an incoming req see
system.mem_ctrls0.wrQLenPdf::40                     0                       # What write queue length does an incoming req see
system.mem_ctrls0.wrQLenPdf::41                     0                       # What write queue length does an incoming req see
system.mem_ctrls0.wrQLenPdf::42                     0                       # What write queue length does an incoming req see
system.mem_ctrls0.wrQLenPdf::43                     0                       # What write queue length does an incoming req see
system.mem_ctrls0.wrQLenPdf::44                     0                       # What write queue length does an incoming req see
system.mem_ctrls0.wrQLenPdf::45                     0                       # What write queue length does an incoming req see
system.mem_ctrls0.wrQLenPdf::46                     0                       # What write queue length does an incoming req see
system.mem_ctrls0.wrQLenPdf::47                     0                       # What write queue length does an incoming req see
system.mem_ctrls0.wrQLenPdf::48                     0                       # What write queue length does an incoming req see
system.mem_ctrls0.wrQLenPdf::49                     0                       # What write queue length does an incoming req see
system.mem_ctrls0.wrQLenPdf::50                     0                       # What write queue length does an incoming req see
system.mem_ctrls0.wrQLenPdf::51                     0                       # What write queue length does an incoming req see
system.mem_ctrls0.wrQLenPdf::52                     0                       # What write queue length does an incoming req see
system.mem_ctrls0.wrQLenPdf::53                     0                       # What write queue length does an incoming req see
system.mem_ctrls0.wrQLenPdf::54                     0                       # What write queue length does an incoming req see
system.mem_ctrls0.wrQLenPdf::55                     0                       # What write queue length does an incoming req see
system.mem_ctrls0.wrQLenPdf::56                     0                       # What write queue length does an incoming req see
system.mem_ctrls0.wrQLenPdf::57                     0                       # What write queue length does an incoming req see
system.mem_ctrls0.wrQLenPdf::58                     0                       # What write queue length does an incoming req see
system.mem_ctrls0.wrQLenPdf::59                     0                       # What write queue length does an incoming req see
system.mem_ctrls0.wrQLenPdf::60                     0                       # What write queue length does an incoming req see
system.mem_ctrls0.wrQLenPdf::61                     0                       # What write queue length does an incoming req see
system.mem_ctrls0.wrQLenPdf::62                     0                       # What write queue length does an incoming req see
system.mem_ctrls0.wrQLenPdf::63                     0                       # What write queue length does an incoming req see
system.mem_ctrls0.bytesPerActivate::samples       211713                       # Bytes accessed per row activation
system.mem_ctrls0.bytesPerActivate::mean    72.768399                       # Bytes accessed per row activation
system.mem_ctrls0.bytesPerActivate::gmean    68.298839                       # Bytes accessed per row activation
system.mem_ctrls0.bytesPerActivate::stdev    52.758123                       # Bytes accessed per row activation
system.mem_ctrls0.bytesPerActivate::0-127       196618     92.87%     92.87% # Bytes accessed per row activation
system.mem_ctrls0.bytesPerActivate::128-255        12990      6.14%     99.01% # Bytes accessed per row activation
system.mem_ctrls0.bytesPerActivate::256-383          869      0.41%     99.42% # Bytes accessed per row activation
system.mem_ctrls0.bytesPerActivate::384-511          351      0.17%     99.58% # Bytes accessed per row activation
system.mem_ctrls0.bytesPerActivate::512-639          220      0.10%     99.69% # Bytes accessed per row activation
system.mem_ctrls0.bytesPerActivate::640-767          253      0.12%     99.81% # Bytes accessed per row activation
system.mem_ctrls0.bytesPerActivate::768-895          150      0.07%     99.88% # Bytes accessed per row activation
system.mem_ctrls0.bytesPerActivate::896-1023           90      0.04%     99.92% # Bytes accessed per row activation
system.mem_ctrls0.bytesPerActivate::1024-1151          172      0.08%    100.00% # Bytes accessed per row activation
system.mem_ctrls0.bytesPerActivate::total       211713                       # Bytes accessed per row activation
system.mem_ctrls0.rdPerTurnAround::samples         5189                       # Reads before turning the bus around for writes
system.mem_ctrls0.rdPerTurnAround::mean     28.584698                       # Reads before turning the bus around for writes
system.mem_ctrls0.rdPerTurnAround::stdev   358.552319                       # Reads before turning the bus around for writes
system.mem_ctrls0.rdPerTurnAround::0-1023         5188     99.98%     99.98% # Reads before turning the bus around for writes
system.mem_ctrls0.rdPerTurnAround::25600-26623            1      0.02%    100.00% # Reads before turning the bus around for writes
system.mem_ctrls0.rdPerTurnAround::total         5189                       # Reads before turning the bus around for writes
system.mem_ctrls0.wrPerTurnAround::samples         5189                       # Writes before turning the bus around for reads
system.mem_ctrls0.wrPerTurnAround::mean     17.805357                       # Writes before turning the bus around for reads
system.mem_ctrls0.wrPerTurnAround::gmean    17.787867                       # Writes before turning the bus around for reads
system.mem_ctrls0.wrPerTurnAround::stdev     0.775170                       # Writes before turning the bus around for reads
system.mem_ctrls0.wrPerTurnAround::16             679     13.09%     13.09% # Writes before turning the bus around for reads
system.mem_ctrls0.wrPerTurnAround::17              48      0.93%     14.01% # Writes before turning the bus around for reads
system.mem_ctrls0.wrPerTurnAround::18            4127     79.53%     93.54% # Writes before turning the bus around for reads
system.mem_ctrls0.wrPerTurnAround::19             288      5.55%     99.09% # Writes before turning the bus around for reads
system.mem_ctrls0.wrPerTurnAround::20              35      0.67%     99.77% # Writes before turning the bus around for reads
system.mem_ctrls0.wrPerTurnAround::21              10      0.19%     99.96% # Writes before turning the bus around for reads
system.mem_ctrls0.wrPerTurnAround::22               2      0.04%    100.00% # Writes before turning the bus around for reads
system.mem_ctrls0.wrPerTurnAround::total         5189                       # Writes before turning the bus around for reads
system.mem_ctrls0.totQLat                 28040112061                       # Total ticks spent queuing
system.mem_ctrls0.totMemAccLat            30821243311                       # Total ticks spent from burst creation until serviced by the DRAM
system.mem_ctrls0.totBusLat                 741635000                       # Total ticks spent in databus transfers
system.mem_ctrls0.avgQLat                   189042.53                       # Average queueing delay per DRAM burst
system.mem_ctrls0.avgBusLat                   5000.00                       # Average bus latency per DRAM burst
system.mem_ctrls0.avgMemAccLat              207792.53                       # Average memory access latency per DRAM burst
system.mem_ctrls0.avgRdBW                        8.22                       # Average DRAM read bandwidth in MiByte/s
system.mem_ctrls0.avgWrBW                        5.12                       # Average achieved write bandwidth in MiByte/s
system.mem_ctrls0.avgRdBWSys                     8.23                       # Average system read bandwidth in MiByte/s
system.mem_ctrls0.avgWrBWSys                     5.12                       # Average system write bandwidth in MiByte/s
system.mem_ctrls0.peakBW                     12800.00                       # Theoretical peak bandwidth in MiByte/s
system.mem_ctrls0.busUtil                        0.10                       # Data bus utilization in percentage
system.mem_ctrls0.busUtilRead                    0.06                       # Data bus utilization in percentage for reads
system.mem_ctrls0.busUtilWrite                   0.04                       # Data bus utilization in percentage for writes
system.mem_ctrls0.avgRdQLen                      1.00                       # Average read queue length when enqueuing
system.mem_ctrls0.avgWrQLen                     20.78                       # Average write queue length when enqueuing
system.mem_ctrls0.readRowHits                   19467                       # Number of row buffer hits during reads
system.mem_ctrls0.writeRowHits                   9539                       # Number of row buffer hits during writes
system.mem_ctrls0.readRowHitRate                13.12                       # Row buffer hit rate for reads
system.mem_ctrls0.writeRowHitRate               10.32                       # Row buffer hit rate for writes
system.mem_ctrls0.avgGap                   4794551.42                       # Average gap between requests
system.mem_ctrls0.pageHitRate                   12.05                       # Row buffer hit rate, read and write combined
system.mem_ctrls0_0.actEnergy               761031180                       # Energy for activate commands per rank (pJ)
system.mem_ctrls0_0.preEnergy               404497665                       # Energy for precharge commands per rank (pJ)
system.mem_ctrls0_0.readEnergy              531979980                       # Energy for read commands per rank (pJ)
system.mem_ctrls0_0.writeEnergy             243434700                       # Energy for write commands per rank (pJ)
system.mem_ctrls0_0.refreshEnergy        59334887040.000015                       # Energy for refresh commands per rank (pJ)
system.mem_ctrls0_0.actBackEnergy         20522126100                       # Energy for active background per rank (pJ)
system.mem_ctrls0_0.preBackEnergy          3465435840                       # Energy for precharge background per rank (pJ)
system.mem_ctrls0_0.actPowerDownEnergy   117232449480                       # Energy for active power-down per rank (pJ)
system.mem_ctrls0_0.prePowerDownEnergy    98826536160                       # Energy for precharge power-down per rank (pJ)
system.mem_ctrls0_0.selfRefreshEnergy    154638709770                       # Energy for self refresh per rank (pJ)
system.mem_ctrls0_0.totalEnergy          455992921395                       # Total energy per rank (pJ)
system.mem_ctrls0_0.averagePower           394.922272                       # Core power per rank (mW)
system.mem_ctrls0_0.totalIdleTime        1100538257805                       # Total Idle time Per DRAM Rank
system.mem_ctrls0_0.memoryStateTime::IDLE   6951396030                       # Time in different power states
system.mem_ctrls0_0.memoryStateTime::REF  25253722000                       # Time in different power states
system.mem_ctrls0_0.memoryStateTime::SREF 586090098805                       # Time in different power states
system.mem_ctrls0_0.memoryStateTime::PRE_PDN 257360661818                       # Time in different power states
system.mem_ctrls0_0.memoryStateTime::ACT  21895362970                       # Time in different power states
system.mem_ctrls0_0.memoryStateTime::ACT_PDN 257088415258                       # Time in different power states
system.mem_ctrls0_1.actEnergy               750599640                       # Energy for activate commands per rank (pJ)
system.mem_ctrls0_1.preEnergy               398953170                       # Energy for precharge commands per rank (pJ)
system.mem_ctrls0_1.readEnergy              527074800                       # Energy for read commands per rank (pJ)
system.mem_ctrls0_1.writeEnergy             238851540                       # Energy for write commands per rank (pJ)
system.mem_ctrls0_1.refreshEnergy        59107470240.000015                       # Energy for refresh commands per rank (pJ)
system.mem_ctrls0_1.actBackEnergy         20531780760                       # Energy for active background per rank (pJ)
system.mem_ctrls0_1.preBackEnergy          3476201280                       # Energy for precharge background per rank (pJ)
system.mem_ctrls0_1.actPowerDownEnergy   116115678120                       # Energy for active power-down per rank (pJ)
system.mem_ctrls0_1.prePowerDownEnergy    98511913440                       # Energy for precharge power-down per rank (pJ)
system.mem_ctrls0_1.selfRefreshEnergy    155436623685                       # Energy for self refresh per rank (pJ)
system.mem_ctrls0_1.totalEnergy          455122598835                       # Total energy per rank (pJ)
system.mem_ctrls0_1.averagePower           394.168511                       # Core power per rank (mW)
system.mem_ctrls0_1.totalIdleTime        1100499587378                       # Total Idle time Per DRAM Rank
system.mem_ctrls0_1.memoryStateTime::IDLE   6980165697                       # Time in different power states
system.mem_ctrls0_1.memoryStateTime::REF  25157648000                       # Time in different power states
system.mem_ctrls0_1.memoryStateTime::SREF 589319023305                       # Time in different power states
system.mem_ctrls0_1.memoryStateTime::PRE_PDN 256541446752                       # Time in different power states
system.mem_ctrls0_1.memoryStateTime::ACT  22001343730                       # Time in different power states
system.mem_ctrls0_1.memoryStateTime::ACT_PDN 254640029397                       # Time in different power states
system.mem_ctrls1.pwrStateResidencyTicks::UNDEFINED 18807981047811                       # Cumulative time (in ticks) in various power states
system.mem_ctrls1.bytes_read::cpu.inst            128                       # Number of bytes read from this memory
system.mem_ctrls1.bytes_read::cpu.data            192                       # Number of bytes read from this memory
system.mem_ctrls1.bytes_read::switch_cpus.inst       112576                       # Number of bytes read from this memory
system.mem_ctrls1.bytes_read::switch_cpus.data      8041856                       # Number of bytes read from this memory
system.mem_ctrls1.bytes_read::switch_cpus_1.inst        12736                       # Number of bytes read from this memory
system.mem_ctrls1.bytes_read::switch_cpus_1.data      1371136                       # Number of bytes read from this memory
system.mem_ctrls1.bytes_read::total           9538624                       # Number of bytes read from this memory
system.mem_ctrls1.bytes_inst_read::cpu.inst          128                       # Number of instructions bytes read from this memory
system.mem_ctrls1.bytes_inst_read::switch_cpus.inst       112576                       # Number of instructions bytes read from this memory
system.mem_ctrls1.bytes_inst_read::switch_cpus_1.inst        12736                       # Number of instructions bytes read from this memory
system.mem_ctrls1.bytes_inst_read::total       125440                       # Number of instructions bytes read from this memory
system.mem_ctrls1.bytes_written::writebacks      5932352                       # Number of bytes written to this memory
system.mem_ctrls1.bytes_written::total        5932352                       # Number of bytes written to this memory
system.mem_ctrls1.num_reads::cpu.inst               2                       # Number of read requests responded to by this memory
system.mem_ctrls1.num_reads::cpu.data               3                       # Number of read requests responded to by this memory
system.mem_ctrls1.num_reads::switch_cpus.inst         1759                       # Number of read requests responded to by this memory
system.mem_ctrls1.num_reads::switch_cpus.data       125654                       # Number of read requests responded to by this memory
system.mem_ctrls1.num_reads::switch_cpus_1.inst          199                       # Number of read requests responded to by this memory
system.mem_ctrls1.num_reads::switch_cpus_1.data        21424                       # Number of read requests responded to by this memory
system.mem_ctrls1.num_reads::total             149041                       # Number of read requests responded to by this memory
system.mem_ctrls1.num_writes::writebacks        92693                       # Number of write requests responded to by this memory
system.mem_ctrls1.num_writes::total             92693                       # Number of write requests responded to by this memory
system.mem_ctrls1.bw_read::cpu.inst               111                       # Total read bandwidth from this memory (bytes/s)
system.mem_ctrls1.bw_read::cpu.data               166                       # Total read bandwidth from this memory (bytes/s)
system.mem_ctrls1.bw_read::switch_cpus.inst        97499                       # Total read bandwidth from this memory (bytes/s)
system.mem_ctrls1.bw_read::switch_cpus.data      6964819                       # Total read bandwidth from this memory (bytes/s)
system.mem_ctrls1.bw_read::switch_cpus_1.inst        11030                       # Total read bandwidth from this memory (bytes/s)
system.mem_ctrls1.bw_read::switch_cpus_1.data      1187501                       # Total read bandwidth from this memory (bytes/s)
system.mem_ctrls1.bw_read::total              8261126                       # Total read bandwidth from this memory (bytes/s)
system.mem_ctrls1.bw_inst_read::cpu.inst          111                       # Instruction read bandwidth from this memory (bytes/s)
system.mem_ctrls1.bw_inst_read::switch_cpus.inst        97499                       # Instruction read bandwidth from this memory (bytes/s)
system.mem_ctrls1.bw_inst_read::switch_cpus_1.inst        11030                       # Instruction read bandwidth from this memory (bytes/s)
system.mem_ctrls1.bw_inst_read::total          108640                       # Instruction read bandwidth from this memory (bytes/s)
system.mem_ctrls1.bw_write::writebacks        5137838                       # Write bandwidth from this memory (bytes/s)
system.mem_ctrls1.bw_write::total             5137838                       # Write bandwidth from this memory (bytes/s)
system.mem_ctrls1.bw_total::writebacks        5137838                       # Total bandwidth to/from this memory (bytes/s)
system.mem_ctrls1.bw_total::cpu.inst              111                       # Total bandwidth to/from this memory (bytes/s)
system.mem_ctrls1.bw_total::cpu.data              166                       # Total bandwidth to/from this memory (bytes/s)
system.mem_ctrls1.bw_total::switch_cpus.inst        97499                       # Total bandwidth to/from this memory (bytes/s)
system.mem_ctrls1.bw_total::switch_cpus.data      6964819                       # Total bandwidth to/from this memory (bytes/s)
system.mem_ctrls1.bw_total::switch_cpus_1.inst        11030                       # Total bandwidth to/from this memory (bytes/s)
system.mem_ctrls1.bw_total::switch_cpus_1.data      1187501                       # Total bandwidth to/from this memory (bytes/s)
system.mem_ctrls1.bw_total::total            13398965                       # Total bandwidth to/from this memory (bytes/s)
system.mem_ctrls1.readReqs                     149041                       # Number of read requests accepted
system.mem_ctrls1.writeReqs                     92693                       # Number of write requests accepted
system.mem_ctrls1.readBursts                   149041                       # Number of DRAM read bursts, including those serviced by the write queue
system.mem_ctrls1.writeBursts                   92693                       # Number of DRAM write bursts, including those merged in the write queue
system.mem_ctrls1.bytesReadDRAM               9533696                       # Total number of bytes read from DRAM
system.mem_ctrls1.bytesReadWrQ                   4928                       # Total number of bytes read from write queue
system.mem_ctrls1.bytesWritten                5930816                       # Total number of bytes written to DRAM
system.mem_ctrls1.bytesReadSys                9538624                       # Total read bytes from the system interface side
system.mem_ctrls1.bytesWrittenSys             5932352                       # Total written bytes from the system interface side
system.mem_ctrls1.servicedByWrQ                    77                       # Number of DRAM read bursts serviced by the write queue
system.mem_ctrls1.mergedWrBursts                    0                       # Number of DRAM write bursts merged with an existing one
system.mem_ctrls1.neitherReadNorWriteReqs            0                       # Number of requests that are neither read nor write
system.mem_ctrls1.perBankRdBursts::0             9090                       # Per bank write bursts
system.mem_ctrls1.perBankRdBursts::1             9325                       # Per bank write bursts
system.mem_ctrls1.perBankRdBursts::2             9401                       # Per bank write bursts
system.mem_ctrls1.perBankRdBursts::3             9727                       # Per bank write bursts
system.mem_ctrls1.perBankRdBursts::4             9714                       # Per bank write bursts
system.mem_ctrls1.perBankRdBursts::5             9617                       # Per bank write bursts
system.mem_ctrls1.perBankRdBursts::6             8883                       # Per bank write bursts
system.mem_ctrls1.perBankRdBursts::7             9109                       # Per bank write bursts
system.mem_ctrls1.perBankRdBursts::8             9444                       # Per bank write bursts
system.mem_ctrls1.perBankRdBursts::9             9697                       # Per bank write bursts
system.mem_ctrls1.perBankRdBursts::10            9156                       # Per bank write bursts
system.mem_ctrls1.perBankRdBursts::11            9558                       # Per bank write bursts
system.mem_ctrls1.perBankRdBursts::12            9307                       # Per bank write bursts
system.mem_ctrls1.perBankRdBursts::13            9120                       # Per bank write bursts
system.mem_ctrls1.perBankRdBursts::14            8872                       # Per bank write bursts
system.mem_ctrls1.perBankRdBursts::15            8944                       # Per bank write bursts
system.mem_ctrls1.perBankWrBursts::0             5864                       # Per bank write bursts
system.mem_ctrls1.perBankWrBursts::1             6073                       # Per bank write bursts
system.mem_ctrls1.perBankWrBursts::2             5878                       # Per bank write bursts
system.mem_ctrls1.perBankWrBursts::3             6085                       # Per bank write bursts
system.mem_ctrls1.perBankWrBursts::4             5996                       # Per bank write bursts
system.mem_ctrls1.perBankWrBursts::5             5870                       # Per bank write bursts
system.mem_ctrls1.perBankWrBursts::6             5398                       # Per bank write bursts
system.mem_ctrls1.perBankWrBursts::7             5500                       # Per bank write bursts
system.mem_ctrls1.perBankWrBursts::8             5474                       # Per bank write bursts
system.mem_ctrls1.perBankWrBursts::9             5606                       # Per bank write bursts
system.mem_ctrls1.perBankWrBursts::10            5823                       # Per bank write bursts
system.mem_ctrls1.perBankWrBursts::11            6237                       # Per bank write bursts
system.mem_ctrls1.perBankWrBursts::12            5958                       # Per bank write bursts
system.mem_ctrls1.perBankWrBursts::13            5687                       # Per bank write bursts
system.mem_ctrls1.perBankWrBursts::14            5530                       # Per bank write bursts
system.mem_ctrls1.perBankWrBursts::15            5690                       # Per bank write bursts
system.mem_ctrls1.numRdRetry                        0                       # Number of times read queue was full causing retry
system.mem_ctrls1.numWrRetry                        0                       # Number of times write queue was full causing retry
system.mem_ctrls1.totGap                 1154631529683                       # Total gap between requests
system.mem_ctrls1.readPktSize::0                    0                       # Read request sizes (log2)
system.mem_ctrls1.readPktSize::1                    0                       # Read request sizes (log2)
system.mem_ctrls1.readPktSize::2                    0                       # Read request sizes (log2)
system.mem_ctrls1.readPktSize::3                    0                       # Read request sizes (log2)
system.mem_ctrls1.readPktSize::4                    0                       # Read request sizes (log2)
system.mem_ctrls1.readPktSize::5                    0                       # Read request sizes (log2)
system.mem_ctrls1.readPktSize::6               149041                       # Read request sizes (log2)
system.mem_ctrls1.writePktSize::0                   0                       # Write request sizes (log2)
system.mem_ctrls1.writePktSize::1                   0                       # Write request sizes (log2)
system.mem_ctrls1.writePktSize::2                   0                       # Write request sizes (log2)
system.mem_ctrls1.writePktSize::3                   0                       # Write request sizes (log2)
system.mem_ctrls1.writePktSize::4                   0                       # Write request sizes (log2)
system.mem_ctrls1.writePktSize::5                   0                       # Write request sizes (log2)
system.mem_ctrls1.writePktSize::6               92693                       # Write request sizes (log2)
system.mem_ctrls1.rdQLenPdf::0                 147311                       # What read queue length does an incoming req see
system.mem_ctrls1.rdQLenPdf::1                   1620                       # What read queue length does an incoming req see
system.mem_ctrls1.rdQLenPdf::2                     33                       # What read queue length does an incoming req see
system.mem_ctrls1.rdQLenPdf::3                      0                       # What read queue length does an incoming req see
system.mem_ctrls1.rdQLenPdf::4                      0                       # What read queue length does an incoming req see
system.mem_ctrls1.rdQLenPdf::5                      0                       # What read queue length does an incoming req see
system.mem_ctrls1.rdQLenPdf::6                      0                       # What read queue length does an incoming req see
system.mem_ctrls1.rdQLenPdf::7                      0                       # What read queue length does an incoming req see
system.mem_ctrls1.rdQLenPdf::8                      0                       # What read queue length does an incoming req see
system.mem_ctrls1.rdQLenPdf::9                      0                       # What read queue length does an incoming req see
system.mem_ctrls1.rdQLenPdf::10                     0                       # What read queue length does an incoming req see
system.mem_ctrls1.rdQLenPdf::11                     0                       # What read queue length does an incoming req see
system.mem_ctrls1.rdQLenPdf::12                     0                       # What read queue length does an incoming req see
system.mem_ctrls1.rdQLenPdf::13                     0                       # What read queue length does an incoming req see
system.mem_ctrls1.rdQLenPdf::14                     0                       # What read queue length does an incoming req see
system.mem_ctrls1.rdQLenPdf::15                     0                       # What read queue length does an incoming req see
system.mem_ctrls1.rdQLenPdf::16                     0                       # What read queue length does an incoming req see
system.mem_ctrls1.rdQLenPdf::17                     0                       # What read queue length does an incoming req see
system.mem_ctrls1.rdQLenPdf::18                     0                       # What read queue length does an incoming req see
system.mem_ctrls1.rdQLenPdf::19                     0                       # What read queue length does an incoming req see
system.mem_ctrls1.rdQLenPdf::20                     0                       # What read queue length does an incoming req see
system.mem_ctrls1.rdQLenPdf::21                     0                       # What read queue length does an incoming req see
system.mem_ctrls1.rdQLenPdf::22                     0                       # What read queue length does an incoming req see
system.mem_ctrls1.rdQLenPdf::23                     0                       # What read queue length does an incoming req see
system.mem_ctrls1.rdQLenPdf::24                     0                       # What read queue length does an incoming req see
system.mem_ctrls1.rdQLenPdf::25                     0                       # What read queue length does an incoming req see
system.mem_ctrls1.rdQLenPdf::26                     0                       # What read queue length does an incoming req see
system.mem_ctrls1.rdQLenPdf::27                     0                       # What read queue length does an incoming req see
system.mem_ctrls1.rdQLenPdf::28                     0                       # What read queue length does an incoming req see
system.mem_ctrls1.rdQLenPdf::29                     0                       # What read queue length does an incoming req see
system.mem_ctrls1.rdQLenPdf::30                     0                       # What read queue length does an incoming req see
system.mem_ctrls1.rdQLenPdf::31                     0                       # What read queue length does an incoming req see
system.mem_ctrls1.wrQLenPdf::0                      2                       # What write queue length does an incoming req see
system.mem_ctrls1.wrQLenPdf::1                      2                       # What write queue length does an incoming req see
system.mem_ctrls1.wrQLenPdf::2                      2                       # What write queue length does an incoming req see
system.mem_ctrls1.wrQLenPdf::3                      2                       # What write queue length does an incoming req see
system.mem_ctrls1.wrQLenPdf::4                      2                       # What write queue length does an incoming req see
system.mem_ctrls1.wrQLenPdf::5                      2                       # What write queue length does an incoming req see
system.mem_ctrls1.wrQLenPdf::6                      2                       # What write queue length does an incoming req see
system.mem_ctrls1.wrQLenPdf::7                      2                       # What write queue length does an incoming req see
system.mem_ctrls1.wrQLenPdf::8                      2                       # What write queue length does an incoming req see
system.mem_ctrls1.wrQLenPdf::9                      2                       # What write queue length does an incoming req see
system.mem_ctrls1.wrQLenPdf::10                     2                       # What write queue length does an incoming req see
system.mem_ctrls1.wrQLenPdf::11                     2                       # What write queue length does an incoming req see
system.mem_ctrls1.wrQLenPdf::12                     2                       # What write queue length does an incoming req see
system.mem_ctrls1.wrQLenPdf::13                     2                       # What write queue length does an incoming req see
system.mem_ctrls1.wrQLenPdf::14                     2                       # What write queue length does an incoming req see
system.mem_ctrls1.wrQLenPdf::15                  4451                       # What write queue length does an incoming req see
system.mem_ctrls1.wrQLenPdf::16                  4524                       # What write queue length does an incoming req see
system.mem_ctrls1.wrQLenPdf::17                  5165                       # What write queue length does an incoming req see
system.mem_ctrls1.wrQLenPdf::18                  5216                       # What write queue length does an incoming req see
system.mem_ctrls1.wrQLenPdf::19                  5244                       # What write queue length does an incoming req see
system.mem_ctrls1.wrQLenPdf::20                  5229                       # What write queue length does an incoming req see
system.mem_ctrls1.wrQLenPdf::21                  5229                       # What write queue length does an incoming req see
system.mem_ctrls1.wrQLenPdf::22                  5231                       # What write queue length does an incoming req see
system.mem_ctrls1.wrQLenPdf::23                  5245                       # What write queue length does an incoming req see
system.mem_ctrls1.wrQLenPdf::24                  5243                       # What write queue length does an incoming req see
system.mem_ctrls1.wrQLenPdf::25                  5239                       # What write queue length does an incoming req see
system.mem_ctrls1.wrQLenPdf::26                  5229                       # What write queue length does an incoming req see
system.mem_ctrls1.wrQLenPdf::27                  5230                       # What write queue length does an incoming req see
system.mem_ctrls1.wrQLenPdf::28                  5225                       # What write queue length does an incoming req see
system.mem_ctrls1.wrQLenPdf::29                  5208                       # What write queue length does an incoming req see
system.mem_ctrls1.wrQLenPdf::30                  5209                       # What write queue length does an incoming req see
system.mem_ctrls1.wrQLenPdf::31                  5205                       # What write queue length does an incoming req see
system.mem_ctrls1.wrQLenPdf::32                  5202                       # What write queue length does an incoming req see
system.mem_ctrls1.wrQLenPdf::33                   112                       # What write queue length does an incoming req see
system.mem_ctrls1.wrQLenPdf::34                    18                       # What write queue length does an incoming req see
system.mem_ctrls1.wrQLenPdf::35                     6                       # What write queue length does an incoming req see
system.mem_ctrls1.wrQLenPdf::36                     2                       # What write queue length does an incoming req see
system.mem_ctrls1.wrQLenPdf::37                     1                       # What write queue length does an incoming req see
system.mem_ctrls1.wrQLenPdf::38                     0                       # What write queue length does an incoming req see
system.mem_ctrls1.wrQLenPdf::39                     0                       # What write queue length does an incoming req see
system.mem_ctrls1.wrQLenPdf::40                     0                       # What write queue length does an incoming req see
system.mem_ctrls1.wrQLenPdf::41                     0                       # What write queue length does an incoming req see
system.mem_ctrls1.wrQLenPdf::42                     0                       # What write queue length does an incoming req see
system.mem_ctrls1.wrQLenPdf::43                     0                       # What write queue length does an incoming req see
system.mem_ctrls1.wrQLenPdf::44                     0                       # What write queue length does an incoming req see
system.mem_ctrls1.wrQLenPdf::45                     0                       # What write queue length does an incoming req see
system.mem_ctrls1.wrQLenPdf::46                     0                       # What write queue length does an incoming req see
system.mem_ctrls1.wrQLenPdf::47                     0                       # What write queue length does an incoming req see
system.mem_ctrls1.wrQLenPdf::48                     0                       # What write queue length does an incoming req see
system.mem_ctrls1.wrQLenPdf::49                     0                       # What write queue length does an incoming req see
system.mem_ctrls1.wrQLenPdf::50                     0                       # What write queue length does an incoming req see
system.mem_ctrls1.wrQLenPdf::51                     0                       # What write queue length does an incoming req see
system.mem_ctrls1.wrQLenPdf::52                     0                       # What write queue length does an incoming req see
system.mem_ctrls1.wrQLenPdf::53                     0                       # What write queue length does an incoming req see
system.mem_ctrls1.wrQLenPdf::54                     0                       # What write queue length does an incoming req see
system.mem_ctrls1.wrQLenPdf::55                     0                       # What write queue length does an incoming req see
system.mem_ctrls1.wrQLenPdf::56                     0                       # What write queue length does an incoming req see
system.mem_ctrls1.wrQLenPdf::57                     0                       # What write queue length does an incoming req see
system.mem_ctrls1.wrQLenPdf::58                     0                       # What write queue length does an incoming req see
system.mem_ctrls1.wrQLenPdf::59                     0                       # What write queue length does an incoming req see
system.mem_ctrls1.wrQLenPdf::60                     0                       # What write queue length does an incoming req see
system.mem_ctrls1.wrQLenPdf::61                     0                       # What write queue length does an incoming req see
system.mem_ctrls1.wrQLenPdf::62                     0                       # What write queue length does an incoming req see
system.mem_ctrls1.wrQLenPdf::63                     0                       # What write queue length does an incoming req see
system.mem_ctrls1.bytesPerActivate::samples       212772                       # Bytes accessed per row activation
system.mem_ctrls1.bytesPerActivate::mean    72.681142                       # Bytes accessed per row activation
system.mem_ctrls1.bytesPerActivate::gmean    68.239110                       # Bytes accessed per row activation
system.mem_ctrls1.bytesPerActivate::stdev    52.587916                       # Bytes accessed per row activation
system.mem_ctrls1.bytesPerActivate::0-127       197857     92.99%     92.99% # Bytes accessed per row activation
system.mem_ctrls1.bytesPerActivate::128-255        12799      6.02%     99.01% # Bytes accessed per row activation
system.mem_ctrls1.bytesPerActivate::256-383          873      0.41%     99.42% # Bytes accessed per row activation
system.mem_ctrls1.bytesPerActivate::384-511          336      0.16%     99.57% # Bytes accessed per row activation
system.mem_ctrls1.bytesPerActivate::512-639          225      0.11%     99.68% # Bytes accessed per row activation
system.mem_ctrls1.bytesPerActivate::640-767          277      0.13%     99.81% # Bytes accessed per row activation
system.mem_ctrls1.bytesPerActivate::768-895          160      0.08%     99.88% # Bytes accessed per row activation
system.mem_ctrls1.bytesPerActivate::896-1023           74      0.03%     99.92% # Bytes accessed per row activation
system.mem_ctrls1.bytesPerActivate::1024-1151          171      0.08%    100.00% # Bytes accessed per row activation
system.mem_ctrls1.bytesPerActivate::total       212772                       # Bytes accessed per row activation
system.mem_ctrls1.rdPerTurnAround::samples         5203                       # Reads before turning the bus around for writes
system.mem_ctrls1.rdPerTurnAround::mean     28.630021                       # Reads before turning the bus around for writes
system.mem_ctrls1.rdPerTurnAround::stdev   359.136003                       # Reads before turning the bus around for writes
system.mem_ctrls1.rdPerTurnAround::0-1023         5202     99.98%     99.98% # Reads before turning the bus around for writes
system.mem_ctrls1.rdPerTurnAround::25600-26623            1      0.02%    100.00% # Reads before turning the bus around for writes
system.mem_ctrls1.rdPerTurnAround::total         5203                       # Reads before turning the bus around for writes
system.mem_ctrls1.wrPerTurnAround::samples         5203                       # Writes before turning the bus around for reads
system.mem_ctrls1.wrPerTurnAround::mean     17.810686                       # Writes before turning the bus around for reads
system.mem_ctrls1.wrPerTurnAround::gmean    17.792145                       # Writes before turning the bus around for reads
system.mem_ctrls1.wrPerTurnAround::stdev     0.800870                       # Writes before turning the bus around for reads
system.mem_ctrls1.wrPerTurnAround::16             696     13.38%     13.38% # Writes before turning the bus around for reads
system.mem_ctrls1.wrPerTurnAround::17              50      0.96%     14.34% # Writes before turning the bus around for reads
system.mem_ctrls1.wrPerTurnAround::18            4077     78.36%     92.70% # Writes before turning the bus around for reads
system.mem_ctrls1.wrPerTurnAround::19             325      6.25%     98.94% # Writes before turning the bus around for reads
system.mem_ctrls1.wrPerTurnAround::20              43      0.83%     99.77% # Writes before turning the bus around for reads
system.mem_ctrls1.wrPerTurnAround::21               6      0.12%     99.88% # Writes before turning the bus around for reads
system.mem_ctrls1.wrPerTurnAround::22               4      0.08%     99.96% # Writes before turning the bus around for reads
system.mem_ctrls1.wrPerTurnAround::23               1      0.02%     99.98% # Writes before turning the bus around for reads
system.mem_ctrls1.wrPerTurnAround::25               1      0.02%    100.00% # Writes before turning the bus around for reads
system.mem_ctrls1.wrPerTurnAround::total         5203                       # Writes before turning the bus around for reads
system.mem_ctrls1.totQLat                 28170852386                       # Total ticks spent queuing
system.mem_ctrls1.totMemAccLat            30963927386                       # Total ticks spent from burst creation until serviced by the DRAM
system.mem_ctrls1.totBusLat                 744820000                       # Total ticks spent in databus transfers
system.mem_ctrls1.avgQLat                   189111.81                       # Average queueing delay per DRAM burst
system.mem_ctrls1.avgBusLat                   5000.00                       # Average bus latency per DRAM burst
system.mem_ctrls1.avgMemAccLat              207861.81                       # Average memory access latency per DRAM burst
system.mem_ctrls1.avgRdBW                        8.26                       # Average DRAM read bandwidth in MiByte/s
system.mem_ctrls1.avgWrBW                        5.14                       # Average achieved write bandwidth in MiByte/s
system.mem_ctrls1.avgRdBWSys                     8.26                       # Average system read bandwidth in MiByte/s
system.mem_ctrls1.avgWrBWSys                     5.14                       # Average system write bandwidth in MiByte/s
system.mem_ctrls1.peakBW                     12800.00                       # Theoretical peak bandwidth in MiByte/s
system.mem_ctrls1.busUtil                        0.10                       # Data bus utilization in percentage
system.mem_ctrls1.busUtilRead                    0.06                       # Data bus utilization in percentage for reads
system.mem_ctrls1.busUtilWrite                   0.04                       # Data bus utilization in percentage for writes
system.mem_ctrls1.avgRdQLen                      1.00                       # Average read queue length when enqueuing
system.mem_ctrls1.avgWrQLen                     20.88                       # Average write queue length when enqueuing
system.mem_ctrls1.readRowHits                   19422                       # Number of row buffer hits during reads
system.mem_ctrls1.writeRowHits                   9439                       # Number of row buffer hits during writes
system.mem_ctrls1.readRowHitRate                13.04                       # Row buffer hit rate for reads
system.mem_ctrls1.writeRowHitRate               10.18                       # Row buffer hit rate for writes
system.mem_ctrls1.avgGap                   4776454.82                       # Average gap between requests
system.mem_ctrls1.pageHitRate                   11.94                       # Row buffer hit rate, read and write combined
system.mem_ctrls1_0.actEnergy               764715420                       # Energy for activate commands per rank (pJ)
system.mem_ctrls1_0.preEnergy               406455885                       # Energy for precharge commands per rank (pJ)
system.mem_ctrls1_0.readEnergy              534543240                       # Energy for read commands per rank (pJ)
system.mem_ctrls1_0.writeEnergy             243586080                       # Energy for write commands per rank (pJ)
system.mem_ctrls1_0.refreshEnergy        59542020720.000015                       # Energy for refresh commands per rank (pJ)
system.mem_ctrls1_0.actBackEnergy         20728928370                       # Energy for active background per rank (pJ)
system.mem_ctrls1_0.preBackEnergy          3485478720                       # Energy for precharge background per rank (pJ)
system.mem_ctrls1_0.actPowerDownEnergy   117748386690                       # Energy for active power-down per rank (pJ)
system.mem_ctrls1_0.prePowerDownEnergy    98897727840                       # Energy for precharge power-down per rank (pJ)
system.mem_ctrls1_0.selfRefreshEnergy    154261514370                       # Energy for self refresh per rank (pJ)
system.mem_ctrls1_0.totalEnergy          456640097925                       # Total energy per rank (pJ)
system.mem_ctrls1_0.averagePower           395.482773                       # Core power per rank (mW)
system.mem_ctrls1_0.totalIdleTime        1100045125959                       # Total Idle time Per DRAM Rank
system.mem_ctrls1_0.memoryStateTime::IDLE   6982835810                       # Time in different power states
system.mem_ctrls1_0.memoryStateTime::REF  25342074000                       # Time in different power states
system.mem_ctrls1_0.memoryStateTime::SREF 584278856525                       # Time in different power states
system.mem_ctrls1_0.memoryStateTime::PRE_PDN 257546130190                       # Time in different power states
system.mem_ctrls1_0.memoryStateTime::ACT  22269405006                       # Time in different power states
system.mem_ctrls1_0.memoryStateTime::ACT_PDN 258220355350                       # Time in different power states
system.mem_ctrls1_1.actEnergy               754476660                       # Energy for activate commands per rank (pJ)
system.mem_ctrls1_1.preEnergy               401013855                       # Energy for precharge commands per rank (pJ)
system.mem_ctrls1_1.readEnergy              529059720                       # Energy for read commands per rank (pJ)
system.mem_ctrls1_1.writeEnergy             240146100                       # Energy for write commands per rank (pJ)
system.mem_ctrls1_1.refreshEnergy        59283871920.000015                       # Energy for refresh commands per rank (pJ)
system.mem_ctrls1_1.actBackEnergy         20530602000                       # Energy for active background per rank (pJ)
system.mem_ctrls1_1.preBackEnergy          3478509120                       # Energy for precharge background per rank (pJ)
system.mem_ctrls1_1.actPowerDownEnergy   116776177590                       # Energy for active power-down per rank (pJ)
system.mem_ctrls1_1.prePowerDownEnergy    98742262560                       # Energy for precharge power-down per rank (pJ)
system.mem_ctrls1_1.selfRefreshEnergy    154958419455                       # Energy for self refresh per rank (pJ)
system.mem_ctrls1_1.totalEnergy          455723694720                       # Total energy per rank (pJ)
system.mem_ctrls1_1.averagePower           394.689100                       # Core power per rank (mW)
system.mem_ctrls1_1.totalIdleTime        1100489977615                       # Total Idle time Per DRAM Rank
system.mem_ctrls1_1.memoryStateTime::IDLE   6980652862                       # Time in different power states
system.mem_ctrls1_1.memoryStateTime::REF  25232490000                       # Time in different power states
system.mem_ctrls1_1.memoryStateTime::SREF 587263531235                       # Time in different power states
system.mem_ctrls1_1.memoryStateTime::PRE_PDN 257141242510                       # Time in different power states
system.mem_ctrls1_1.memoryStateTime::ACT  21933529758                       # Time in different power states
system.mem_ctrls1_1.memoryStateTime::ACT_PDN 256088210516                       # Time in different power states
system.pwrStateResidencyTicks::UNDEFINED 18807981047811                       # Cumulative time (in ticks) in various power states
system.cpu.branchPred.lookups                       3                       # Number of BP lookups
system.cpu.branchPred.condPredicted                 1                       # Number of conditional branches predicted
system.cpu.branchPred.condIncorrect                 1                       # Number of conditional branches incorrect
system.cpu.branchPred.BTBLookups                    2                       # Number of BTB lookups
system.cpu.branchPred.BTBHits                       0                       # Number of BTB hits
system.cpu.branchPred.BTBCorrect                    0                       # Number of correct BTB predictions (this stat may not work properly.
system.cpu.branchPred.BTBHitPct              0.000000                       # BTB Hit Percentage
system.cpu.branchPred.usedRAS                       0                       # Number of times the RAS was used to get a target.
system.cpu.branchPred.RASInCorrect                  0                       # Number of incorrect RAS predictions.
system.cpu.branchPred.indirectLookups               0                       # Number of indirect predictor lookups.
system.cpu.branchPred.indirectHits                  0                       # Number of indirect target hits.
system.cpu.branchPred.indirectMisses                0                       # Number of indirect misses.
system.cpu.branchPredindirectMispredicted            0                       # Number of mispredicted indirect branches.
system.cpu_voltage_domain.voltage                   1                       # Voltage in Volts
system.cpu_clk_domain.clock                       333                       # Clock period in ticks
system.cpu.dtb.fetch_hits                           0                       # ITB hits
system.cpu.dtb.fetch_misses                         0                       # ITB misses
system.cpu.dtb.fetch_acv                            0                       # ITB acv
system.cpu.dtb.fetch_accesses                       0                       # ITB accesses
system.cpu.dtb.read_hits                            3                       # DTB read hits
system.cpu.dtb.read_misses                          0                       # DTB read misses
system.cpu.dtb.read_acv                             0                       # DTB read access violations
system.cpu.dtb.read_accesses                        3                       # DTB read accesses
system.cpu.dtb.write_hits                          11                       # DTB write hits
system.cpu.dtb.write_misses                         0                       # DTB write misses
system.cpu.dtb.write_acv                            0                       # DTB write access violations
system.cpu.dtb.write_accesses                      11                       # DTB write accesses
system.cpu.dtb.data_hits                           14                       # DTB hits
system.cpu.dtb.data_misses                          0                       # DTB misses
system.cpu.dtb.data_acv                             0                       # DTB access violations
system.cpu.dtb.data_accesses                       14                       # DTB accesses
system.cpu.itb.fetch_hits                           6                       # ITB hits
system.cpu.itb.fetch_misses                         0                       # ITB misses
system.cpu.itb.fetch_acv                            0                       # ITB acv
system.cpu.itb.fetch_accesses                       6                       # ITB accesses
system.cpu.itb.read_hits                            0                       # DTB read hits
system.cpu.itb.read_misses                          0                       # DTB read misses
system.cpu.itb.read_acv                             0                       # DTB read access violations
system.cpu.itb.read_accesses                        0                       # DTB read accesses
system.cpu.itb.write_hits                           0                       # DTB write hits
system.cpu.itb.write_misses                         0                       # DTB write misses
system.cpu.itb.write_acv                            0                       # DTB write access violations
system.cpu.itb.write_accesses                       0                       # DTB write accesses
system.cpu.itb.data_hits                            0                       # DTB hits
system.cpu.itb.data_misses                          0                       # DTB misses
system.cpu.itb.data_acv                             0                       # DTB access violations
system.cpu.itb.data_accesses                        0                       # DTB accesses
system.cpu.workload.num_syscalls                    0                       # Number of system calls
system.cpu.pwrStateResidencyTicks::ON    1154639656881                       # Cumulative time (in ticks) in various power states
system.cpu.numCycles                             1491                       # number of cpu cycles simulated
system.cpu.numWorkItemsStarted                      0                       # number of work items this cpu started
system.cpu.numWorkItemsCompleted                    0                       # number of work items this cpu completed
system.cpu.fetch.icacheStallCycles                 63                       # Number of cycles fetch is stalled on an Icache miss
system.cpu.fetch.Insts                             31                       # Number of instructions fetch has processed
system.cpu.fetch.Branches                           3                       # Number of branches that fetch encountered
system.cpu.fetch.Cycles                             5                       # Number of cycles fetch has run and was not squashing or blocked
system.cpu.fetch.SquashCycles                       5                       # Number of cycles fetch has spent squashing
system.cpu.fetch.PendingDrainCycles                 8                       # Number of cycles fetch has spent waiting on pipes to drain
system.cpu.fetch.CacheLines                         6                       # Number of cache lines fetched
system.cpu.fetch.IcacheSquashes                     3                       # Number of outstanding Icache misses that were squashed
system.cpu.fetch.rateDist::samples                 78                       # Number of instructions fetched each cycle (Total)
system.cpu.fetch.rateDist::mean              0.397436                       # Number of instructions fetched each cycle (Total)
system.cpu.fetch.rateDist::stdev             1.646245                       # Number of instructions fetched each cycle (Total)
system.cpu.fetch.rateDist::underflows               0      0.00%      0.00% # Number of instructions fetched each cycle (Total)
system.cpu.fetch.rateDist::0                       73     93.59%     93.59% # Number of instructions fetched each cycle (Total)
system.cpu.fetch.rateDist::1                        0      0.00%     93.59% # Number of instructions fetched each cycle (Total)
system.cpu.fetch.rateDist::2                        1      1.28%     94.87% # Number of instructions fetched each cycle (Total)
system.cpu.fetch.rateDist::3                        0      0.00%     94.87% # Number of instructions fetched each cycle (Total)
system.cpu.fetch.rateDist::4                        0      0.00%     94.87% # Number of instructions fetched each cycle (Total)
system.cpu.fetch.rateDist::5                        1      1.28%     96.15% # Number of instructions fetched each cycle (Total)
system.cpu.fetch.rateDist::6                        0      0.00%     96.15% # Number of instructions fetched each cycle (Total)
system.cpu.fetch.rateDist::7                        0      0.00%     96.15% # Number of instructions fetched each cycle (Total)
system.cpu.fetch.rateDist::8                        3      3.85%    100.00% # Number of instructions fetched each cycle (Total)
system.cpu.fetch.rateDist::overflows                0      0.00%    100.00% # Number of instructions fetched each cycle (Total)
[...]
system.switch_cpus_1.iq.int_inst_queue_writes    350675070                       # Number of integer instruction queue writes
system.switch_cpus_1.iq.int_inst_queue_wakeup_accesses    241018049                       # Number of integer instruction queue wakeup accesses
system.switch_cpus_1.iq.fp_inst_queue_reads      4184800                       # Number of floating instruction queue reads
system.switch_cpus_1.iq.fp_inst_queue_writes      2882466                       # Number of floating instruction queue writes
system.switch_cpus_1.iq.fp_inst_queue_wakeup_accesses      1992435                       # Number of floating instruction queue wakeup accesses
system.switch_cpus_1.iq.int_alu_accesses    258534621                       # Number of integer alu accesses
system.switch_cpus_1.iq.fp_alu_accesses       2118757                       # Number of floating point alu accesses
system.switch_cpus_1.iew.lsq.thread0.forwLoads      2614137                       # Number of loads that had data forwarded from stores
system.switch_cpus_1.iew.lsq.thread0.invAddrLoads            0                       # Number of loads ignored due to an invalid address
system.switch_cpus_1.iew.lsq.thread0.squashedLoads     17976885                       # Number of loads squashed
system.switch_cpus_1.iew.lsq.thread0.ignoredResponses        30200                       # Number of memory responses ignored because the instruction is squashed
system.switch_cpus_1.iew.lsq.thread0.memOrderViolation        36488                       # Number of memory ordering violations
system.switch_cpus_1.iew.lsq.thread0.squashedStores      5646930                       # Number of stores squashed
system.switch_cpus_1.iew.lsq.thread0.invAddrSwpfs            0                       # Number of software prefetches ignored due to an invalid address
system.switch_cpus_1.iew.lsq.thread0.blockedLoads            0                       # Number of blocked loads due to partial load-store forwarding
system.switch_cpus_1.iew.lsq.thread0.rescheduledLoads         9711                       # Number of loads that were rescheduled
system.switch_cpus_1.iew.lsq.thread0.cacheBlocked      1536079                       # Number of times an access to memory failed due to the cache being blocked
system.switch_cpus_1.iew.iewIdleCycles              0                       # Number of cycles IEW is idle
system.switch_cpus_1.iew.iewSquashCycles      3789110                       # Number of cycles IEW is squashing
system.switch_cpus_1.iew.iewBlockCycles      13262828                       # Number of cycles IEW is blocking
system.switch_cpus_1.iew.iewUnblockCycles      3502722                       # Number of cycles IEW is unblocking
system.switch_cpus_1.iew.iewDispatchedInsts    283612558                       # Number of instructions dispatched to IQ
system.switch_cpus_1.iew.iewDispSquashedInsts      1400782                       # Number of squashed instructions skipped by dispatch
system.switch_cpus_1.iew.iewDispLoadInsts     62098639                       # Number of dispatched load instructions
system.switch_cpus_1.iew.iewDispStoreInsts     27946775                       # Number of dispatched store instructions
system.switch_cpus_1.iew.iewDispNonSpecInsts          178                       # Number of dispatched non-speculative instructions
system.switch_cpus_1.iew.iewIQFullEvents        26792                       # Number of times the IQ has become full, causing a stall
system.switch_cpus_1.iew.iewLSQFullEvents      3428321                       # Number of times the LSQ has become full, causing a stall
system.switch_cpus_1.iew.memOrderViolationEvents        36488                       # Number of memory order violations
system.switch_cpus_1.iew.predictedTakenIncorrect      2207001                       # Number of branches that were predicted taken incorrectly
system.switch_cpus_1.iew.predictedNotTakenIncorrect      1998137                       # Number of branches that were predicted not taken incorrectly
system.switch_cpus_1.iew.branchMispredicts      4205138                       # Number of branch mispredicts detected at execute
system.switch_cpus_1.iew.iewExecutedInsts    249119412                       # Number of executed instructions
system.switch_cpus_1.iew.iewExecLoadInsts     57908510                       # Number of load instructions executed
system.switch_cpus_1.iew.iewExecSquashedInsts      6201895                       # Number of squashed instructions skipped in execute
system.switch_cpus_1.iew.exec_swp                   0                       # number of swp insts executed
system.switch_cpus_1.iew.exec_nop             6850630                       # number of nop insts executed
system.switch_cpus_1.iew.exec_refs           83130460                       # number of memory reference insts executed
system.switch_cpus_1.iew.exec_branches       36347341                       # Number of branches executed
system.switch_cpus_1.iew.exec_stores         25221950                       # Number of stores executed
system.switch_cpus_1.iew.exec_rate           1.283417                       # Inst execution rate
system.switch_cpus_1.iew.wb_sent            244634740                       # cumulative count of insts sent to commit
system.switch_cpus_1.iew.wb_count           243010484                       # cumulative count of insts written-back
system.switch_cpus_1.iew.wb_producers       136941706                       # num instructions producing a value
system.switch_cpus_1.iew.wb_consumers       173270401                       # num instructions consuming a value
system.switch_cpus_1.iew.wb_rate             1.251945                       # insts written-back per cycle
system.switch_cpus_1.iew.wb_fanout           0.790335                       # average fanout of values written-back
system.switch_cpus_1.commit.commitSquashedInsts     77292927                       # The number of squashed insts skipped by commit
system.switch_cpus_1.commit.commitNonSpecStalls          176                       # The number of times commit has been forced to stall to communicate backwards
system.switch_cpus_1.commit.branchMispredicts      3694571                       # The number of times a branch was mispredicted
system.switch_cpus_1.commit.committed_per_cycle::samples    168766514                       # Number of insts commited each cycle
system.switch_cpus_1.commit.committed_per_cycle::mean     1.216788                       # Number of insts commited each cycle
system.switch_cpus_1.commit.committed_per_cycle::stdev     2.305911                       # Number of insts commited each cycle
system.switch_cpus_1.commit.committed_per_cycle::underflows            0      0.00%      0.00% # Number of insts commited each cycle
system.switch_cpus_1.commit.committed_per_cycle::0    107573438     63.74%     63.74% # Number of insts commited each cycle
system.switch_cpus_1.commit.committed_per_cycle::1     25356719     15.02%     78.77% # Number of insts commited each cycle
system.switch_cpus_1.commit.committed_per_cycle::2      8742789      5.18%     83.95% # Number of insts commited each cycle
system.switch_cpus_1.commit.committed_per_cycle::3      5225432      3.10%     87.04% # Number of insts commited each cycle
system.switch_cpus_1.commit.committed_per_cycle::4      3418920      2.03%     89.07% # Number of insts commited each cycle
system.switch_cpus_1.commit.committed_per_cycle::5      2722007      1.61%     90.68% # Number of insts commited each cycle
system.switch_cpus_1.commit.committed_per_cycle::6      2311349      1.37%     92.05% # Number of insts commited each cycle
system.switch_cpus_1.commit.committed_per_cycle::7      1646175      0.98%     93.03% # Number of insts commited each cycle
system.switch_cpus_1.commit.committed_per_cycle::8     11769685      6.97%    100.00% # Number of insts commited each cycle
system.switch_cpus_1.commit.committed_per_cycle::overflows            0      0.00%    100.00% # Number of insts commited each cycle
system.switch_cpus_1.commit.committed_per_cycle::min_value            0                       # Number of insts commited each cycle
system.switch_cpus_1.commit.committed_per_cycle::max_value            8                       # Number of insts commited each cycle
system.switch_cpus_1.commit.committed_per_cycle::total    168766514                       # Number of insts commited each cycle
system.switch_cpus_1.commit.committedInsts    205353107                       # Number of instructions committed
system.switch_cpus_1.commit.committedOps    205353107                       # Number of ops (including micro ops) committed
system.switch_cpus_1.commit.swp_count               0                       # Number of s/w prefetches committed
system.switch_cpus_1.commit.refs             66421579                       # Number of memory references committed
system.switch_cpus_1.commit.loads            44121734                       # Number of loads committed
system.switch_cpus_1.commit.membars                88                       # Number of memory barriers committed
system.switch_cpus_1.commit.branches         30359423                       # Number of branches committed
system.switch_cpus_1.commit.fp_insts          1786208                       # Number of committed floating point instructions.
system.switch_cpus_1.commit.int_insts       197426184                       # Number of committed integer instructions.
system.switch_cpus_1.commit.function_calls      1752736                       # Number of function calls committed.
system.switch_cpus_1.commit.op_class_0::No_OpClass      5447375      2.65%      2.65% # Class of committed instruction
system.switch_cpus_1.commit.op_class_0::IntAlu    132113930     64.34%     66.99% # Class of committed instruction
system.switch_cpus_1.commit.op_class_0::IntMult        79596      0.04%     67.03% # Class of committed instruction
system.switch_cpus_1.commit.op_class_0::IntDiv            0      0.00%     67.03% # Class of committed instruction
system.switch_cpus_1.commit.op_class_0::FloatAdd       635244      0.31%     67.34% # Class of committed instruction
system.switch_cpus_1.commit.op_class_0::FloatCmp       335099      0.16%     67.50% # Class of committed instruction
system.switch_cpus_1.commit.op_class_0::FloatCvt       272825      0.13%     67.63% # Class of committed instruction
system.switch_cpus_1.commit.op_class_0::FloatMult            0      0.00%     67.63% # Class of committed instruction
system.switch_cpus_1.commit.op_class_0::FloatMultAcc            0      0.00%     67.63% # Class of committed instruction
system.switch_cpus_1.commit.op_class_0::FloatDiv        47371      0.02%     67.65% # Class of committed instruction
system.switch_cpus_1.commit.op_class_0::FloatMisc            0      0.00%     67.65% # Class of committed instruction
system.switch_cpus_1.commit.op_class_0::FloatSqrt            0      0.00%     67.65% # Class of committed instruction
system.switch_cpus_1.commit.op_class_0::SimdAdd            0      0.00%     67.65% # Class of committed instruction
system.switch_cpus_1.commit.op_class_0::SimdAddAcc            0      0.00%     67.65% # Class of committed instruction
system.switch_cpus_1.commit.op_class_0::SimdAlu            0      0.00%     67.65% # Class of committed instruction
system.switch_cpus_1.commit.op_class_0::SimdCmp            0      0.00%     67.65% # Class of committed instruction
system.switch_cpus_1.commit.op_class_0::SimdCvt            0      0.00%     67.65% # Class of committed instruction
system.switch_cpus_1.commit.op_class_0::SimdMisc            0      0.00%     67.65% # Class of committed instruction
system.switch_cpus_1.commit.op_class_0::SimdMult            0      0.00%     67.65% # Class of committed instruction
system.switch_cpus_1.commit.op_class_0::SimdMultAcc            0      0.00%     67.65% # Class of committed instruction
system.switch_cpus_1.commit.op_class_0::SimdShift            0      0.00%     67.65% # Class of committed instruction
system.switch_cpus_1.commit.op_class_0::SimdShiftAcc            0      0.00%     67.65% # Class of committed instruction
system.switch_cpus_1.commit.op_class_0::SimdSqrt            0      0.00%     67.65% # Class of committed instruction
system.switch_cpus_1.commit.op_class_0::SimdFloatAdd            0      0.00%     67.65% # Class of committed instruction
system.switch_cpus_1.commit.op_class_0::SimdFloatAlu            0      0.00%     67.65% # Class of committed instruction
system.switch_cpus_1.commit.op_class_0::SimdFloatCmp            0      0.00%     67.65% # Class of committed instruction
system.switch_cpus_1.commit.op_class_0::SimdFloatCvt            0      0.00%     67.65% # Class of committed instruction
system.switch_cpus_1.commit.op_class_0::SimdFloatDiv            0      0.00%     67.65% # Class of committed instruction
system.switch_cpus_1.commit.op_class_0::SimdFloatMisc            0      0.00%     67.65% # Class of committed instruction
system.switch_cpus_1.commit.op_class_0::SimdFloatMult            0      0.00%     67.65% # Class of committed instruction
system.switch_cpus_1.commit.op_class_0::SimdFloatMultAcc            0      0.00%     67.65% # Class of committed instruction
system.switch_cpus_1.commit.op_class_0::SimdFloatSqrt            0      0.00%     67.65% # Class of committed instruction
system.switch_cpus_1.commit.op_class_0::MemRead     43815278     21.34%     88.99% # Class of committed instruction
system.switch_cpus_1.commit.op_class_0::MemWrite     22110720     10.77%     99.76% # Class of committed instruction
system.switch_cpus_1.commit.op_class_0::FloatMemRead       306544      0.15%     99.91% # Class of committed instruction
system.switch_cpus_1.commit.op_class_0::FloatMemWrite       189125      0.09%    100.00% # Class of committed instruction
system.switch_cpus_1.commit.op_class_0::IprAccess            0      0.00%    100.00% # Class of committed instruction
system.switch_cpus_1.commit.op_class_0::InstPrefetch            0      0.00%    100.00% # Class of committed instruction
system.switch_cpus_1.commit.op_class_0::total    205353107                       # Class of committed instruction
system.switch_cpus_1.commit.bw_lim_events     11769685                       # number cycles where commit BW limit reached
system.switch_cpus_1.rob.rob_reads          438752376                       # The number of ROB reads
system.switch_cpus_1.rob.rob_writes         577269251                       # The number of ROB writes
system.switch_cpus_1.timesIdled               1025708                       # Number of times that the entire CPU went into an idle state and unscheduled itself
system.switch_cpus_1.idleCycles              13448028                       # Total number of cycles that the CPU has spent unscheduled due to idling
system.switch_cpus_1.committedInsts         200000006                       # Number of Instructions Simulated
system.switch_cpus_1.committedOps           200000006                       # Number of Ops (including micro ops) Simulated
system.switch_cpus_1.cpi                     0.970532                       # CPI: Cycles Per Instruction
system.switch_cpus_1.cpi_total               0.970532                       # CPI: Total CPI of All Threads
system.switch_cpus_1.ipc                     1.030363                       # IPC: Instructions Per Cycle
system.switch_cpus_1.ipc_total               1.030363                       # IPC: Total IPC of All Threads
system.switch_cpus_1.int_regfile_reads      334180437                       # number of integer regfile reads
system.switch_cpus_1.int_regfile_writes     183434740                       # number of integer regfile writes
system.switch_cpus_1.fp_regfile_reads         2123805                       # number of floating regfile reads
system.switch_cpus_1.fp_regfile_writes        1274936                       # number of floating regfile writes
system.switch_cpus_1.misc_regfile_reads         94472                       # number of misc regfile reads
system.switch_cpus_1.misc_regfile_writes        47313                       # number of misc regfile writes
system.tol3bus.snoop_filter.tot_requests      2929311                       # Total number of requests made to the snoop filter.
system.tol3bus.snoop_filter.hit_single_requests      1462617                       # Number of requests hitting in the snoop filter with a single holder of the requested data.
system.tol3bus.snoop_filter.hit_multi_requests            0                       # Number of requests hitting in the snoop filter with multiple (>1) holders of the requested data.
system.tol3bus.snoop_filter.tot_snoops           1016                       # Total number of snoops made to the snoop filter.
system.tol3bus.snoop_filter.hit_single_snoops         1016                       # Number of snoops hitting in the snoop filter with a single holder of the requested data.
system.tol3bus.snoop_filter.hit_multi_snoops            0                       # Number of snoops hitting in the snoop filter with multiple (>1) holders of the requested data.
system.tol3bus.pwrStateResidencyTicks::UNDEFINED 18807981047811                       # Cumulative time (in ticks) in various power states
system.tol3bus.trans_dist::ReadResp           1040892                       # Transaction distribution
system.tol3bus.trans_dist::WritebackDirty      1014979                       # Transaction distribution
system.tol3bus.trans_dist::CleanEvict          679765                       # Transaction distribution
system.tol3bus.trans_dist::ReadExReq           425802                       # Transaction distribution
system.tol3bus.trans_dist::ReadExResp          425802                       # Transaction distribution
system.tol3bus.trans_dist::ReadSharedReq      1040892                       # Transaction distribution
system.tol3bus.pkt_count_system.cpu.l2.mem_side::system.l3.cpu_side      4396005                       # Packet count per connected master and slave (bytes)
system.tol3bus.pkt_size_system.cpu.l2.mem_side::system.l3.cpu_side    146980224                       # Cumulative packet size per connected master and slave (bytes)
system.tol3bus.snoops                          232127                       # Total snoops (count)
system.tol3bus.snoopTraffic                  11846848                       # Total snoop traffic (bytes)
system.tol3bus.snoop_fanout::samples          1698821                       # Request fanout histogram
system.tol3bus.snoop_fanout::mean            0.000598                       # Request fanout histogram
system.tol3bus.snoop_fanout::stdev           0.024448                       # Request fanout histogram
system.tol3bus.snoop_fanout::underflows             0      0.00%      0.00% # Request fanout histogram
system.tol3bus.snoop_fanout::0                1697805     99.94%     99.94% # Request fanout histogram
system.tol3bus.snoop_fanout::1                   1016      0.06%    100.00% # Request fanout histogram
system.tol3bus.snoop_fanout::overflows              0      0.00%    100.00% # Request fanout histogram
system.tol3bus.snoop_fanout::min_value              0                       # Request fanout histogram
system.tol3bus.snoop_fanout::max_value              1                       # Request fanout histogram
system.tol3bus.snoop_fanout::total            1698821                       # Request fanout histogram
system.tol3bus.reqLayer0.occupancy         1251807939                       # Layer occupancy (ticks)
system.tol3bus.reqLayer0.utilization              0.1                       # Layer utilization (%)
system.tol3bus.respLayer0.occupancy         976818204                       # Layer occupancy (ticks)
system.tol3bus.respLayer0.utilization             0.1                       # Layer utilization (%)

---------- End Simulation Statistics   ----------
