
---------- Begin Simulation Statistics ----------
sim_seconds                                  2.947794                       # Number of seconds simulated
sim_ticks                                2947794098157                       # Number of ticks simulated
final_tick                               146424782415231                       # Number of ticks from beginning of simulation (restored from checkpoints and never reset)
sim_freq                                 1000000000000                       # Frequency of simulated ticks
host_inst_rate                                 212643                       # Simulator instruction rate (inst/s)
host_op_rate                                   212643                       # Simulator op (including micro ops) rate (op/s)
host_tick_rate                              522356456                       # Simulator tick rate (ticks/s)
host_mem_usage                                2541888                       # Number of bytes of host memory used
host_seconds                                  5643.26                       # Real time elapsed on the host
sim_insts                                  1200000006                       # Number of instructions simulated
sim_ops                                    1200000006                       # Number of ops (including micro ops) simulated
system.voltage_domain.voltage                       1                       # Voltage in Volts
system.clk_domain.clock                          1000                       # Clock period in ticks
system.mem_ctrls0.pwrStateResidencyTicks::UNDEFINED 146424782415231                       # Cumulative time (in ticks) in various power states
system.mem_ctrls0.bytes_read::cpu.inst            128                       # Number of bytes read from this memory
system.mem_ctrls0.bytes_read::cpu.data            256                       # Number of bytes read from this memory
system.mem_ctrls0.bytes_read::switch_cpus.inst        20864                       # Number of bytes read from this memory
system.mem_ctrls0.bytes_read::switch_cpus.data    440896256                       # Number of bytes read from this memory
system.mem_ctrls0.bytes_read::switch_cpus_1.inst         6720                       # Number of bytes read from this memory
system.mem_ctrls0.bytes_read::switch_cpus_1.data     83807104                       # Number of bytes read from this memory
system.mem_ctrls0.bytes_read::total         524731328                       # Number of bytes read from this memory
system.mem_ctrls0.bytes_inst_read::cpu.inst          128                       # Number of instructions bytes read from this memory
system.mem_ctrls0.bytes_inst_read::switch_cpus.inst        20864                       # Number of instructions bytes read from this memory
system.mem_ctrls0.bytes_inst_read::switch_cpus_1.inst         6720                       # Number of instructions bytes read from this memory
system.mem_ctrls0.bytes_inst_read::total        27712                       # Number of instructions bytes read from this memory
system.mem_ctrls0.bytes_written::writebacks    280429440                       # Number of bytes written to this memory
system.mem_ctrls0.bytes_written::total      280429440                       # Number of bytes written to this memory
system.mem_ctrls0.num_reads::cpu.inst               2                       # Number of read requests responded to by this memory
system.mem_ctrls0.num_reads::cpu.data               4                       # Number of read requests responded to by this memory
system.mem_ctrls0.num_reads::switch_cpus.inst          326                       # Number of read requests responded to by this memory
system.mem_ctrls0.num_reads::switch_cpus.data      6889004                       # Number of read requests responded to by this memory
system.mem_ctrls0.num_reads::switch_cpus_1.inst          105                       # Number of read requests responded to by this memory
system.mem_ctrls0.num_reads::switch_cpus_1.data      1309486                       # Number of read requests responded to by this memory
system.mem_ctrls0.num_reads::total            8198927                       # Number of read requests responded to by this memory
system.mem_ctrls0.num_writes::writebacks      4381710                       # Number of write requests responded to by this memory
system.mem_ctrls0.num_writes::total           4381710                       # Number of write requests responded to by this memory
system.mem_ctrls0.bw_read::cpu.inst                43                       # Total read bandwidth from this memory (bytes/s)
system.mem_ctrls0.bw_read::cpu.data                87                       # Total read bandwidth from this memory (bytes/s)
system.mem_ctrls0.bw_read::switch_cpus.inst         7078                       # Total read bandwidth from this memory (bytes/s)
system.mem_ctrls0.bw_read::switch_cpus.data    149568200                       # Total read bandwidth from this memory (bytes/s)
system.mem_ctrls0.bw_read::switch_cpus_1.inst         2280                       # Total read bandwidth from this memory (bytes/s)
system.mem_ctrls0.bw_read::switch_cpus_1.data     28430447                       # Total read bandwidth from this memory (bytes/s)
system.mem_ctrls0.bw_read::total            178008134                       # Total read bandwidth from this memory (bytes/s)
system.mem_ctrls0.bw_inst_read::cpu.inst           43                       # Instruction read bandwidth from this memory (bytes/s)
system.mem_ctrls0.bw_inst_read::switch_cpus.inst         7078                       # Instruction read bandwidth from this memory (bytes/s)
system.mem_ctrls0.bw_inst_read::switch_cpus_1.inst         2280                       # Instruction read bandwidth from this memory (bytes/s)
system.mem_ctrls0.bw_inst_read::total            9401                       # Instruction read bandwidth from this memory (bytes/s)
system.mem_ctrls0.bw_write::writebacks       95131963                       # Write bandwidth from this memory (bytes/s)
system.mem_ctrls0.bw_write::total            95131963                       # Write bandwidth from this memory (bytes/s)
system.mem_ctrls0.bw_total::writebacks       95131963                       # Total bandwidth to/from this memory (bytes/s)
system.mem_ctrls0.bw_total::cpu.inst               43                       # Total bandwidth to/from this memory (bytes/s)
system.mem_ctrls0.bw_total::cpu.data               87                       # Total bandwidth to/from this memory (bytes/s)
system.mem_ctrls0.bw_total::switch_cpus.inst         7078                       # Total bandwidth to/from this memory (bytes/s)
system.mem_ctrls0.bw_total::switch_cpus.data    149568200                       # Total bandwidth to/from this memory (bytes/s)
system.mem_ctrls0.bw_total::switch_cpus_1.inst         2280                       # Total bandwidth to/from this memory (bytes/s)
system.mem_ctrls0.bw_total::switch_cpus_1.data     28430447                       # Total bandwidth to/from this memory (bytes/s)
system.mem_ctrls0.bw_total::total           273140098                       # Total bandwidth to/from this memory (bytes/s)
system.mem_ctrls0.readReqs                    8198927                       # Number of read requests accepted
system.mem_ctrls0.writeReqs                   4381710                       # Number of write requests accepted
system.mem_ctrls0.readBursts                  8198927                       # Number of DRAM read bursts, including those serviced by the write queue
system.mem_ctrls0.writeBursts                 4381710                       # Number of DRAM write bursts, including those merged in the write queue
system.mem_ctrls0.bytesReadDRAM             524730880                       # Total number of bytes read from DRAM
system.mem_ctrls0.bytesReadWrQ                    448                       # Total number of bytes read from write queue
system.mem_ctrls0.bytesWritten              280427712                       # Total number of bytes written to DRAM
system.mem_ctrls0.bytesReadSys              524731328                       # Total read bytes from the system interface side
system.mem_ctrls0.bytesWrittenSys           280429440                       # Total written bytes from the system interface side
system.mem_ctrls0.servicedByWrQ                     7                       # Number of DRAM read bursts serviced by the write queue
system.mem_ctrls0.mergedWrBursts                    0                       # Number of DRAM write bursts merged with an existing one
system.mem_ctrls0.neitherReadNorWriteReqs            0                       # Number of requests that are neither read nor write
system.mem_ctrls0.perBankRdBursts::0           512735                       # Per bank write bursts
system.mem_ctrls0.perBankRdBursts::1           512165                       # Per bank write bursts
system.mem_ctrls0.perBankRdBursts::2           512984                       # Per bank write bursts
system.mem_ctrls0.perBankRdBursts::3           513188                       # Per bank write bursts
system.mem_ctrls0.perBankRdBursts::4           513127                       # Per bank write bursts
system.mem_ctrls0.perBankRdBursts::5           511921                       # Per bank write bursts
system.mem_ctrls0.perBankRdBursts::6           511707                       # Per bank write bursts
system.mem_ctrls0.perBankRdBursts::7           512325                       # Per bank write bursts
system.mem_ctrls0.perBankRdBursts::8           512405                       # Per bank write bursts
system.mem_ctrls0.perBankRdBursts::9           512028                       # Per bank write bursts
system.mem_ctrls0.perBankRdBursts::10          511012                       # Per bank write bursts
system.mem_ctrls0.perBankRdBursts::11          512959                       # Per bank write bursts
system.mem_ctrls0.perBankRdBursts::12          512706                       # Per bank write bursts
system.mem_ctrls0.perBankRdBursts::13          512252                       # Per bank write bursts
system.mem_ctrls0.perBankRdBursts::14          512656                       # Per bank write bursts
system.mem_ctrls0.perBankRdBursts::15          512750                       # Per bank write bursts
system.mem_ctrls0.perBankWrBursts::0           275451                       # Per bank write bursts
system.mem_ctrls0.perBankWrBursts::1           274015                       # Per bank write bursts
system.mem_ctrls0.perBankWrBursts::2           273439                       # Per bank write bursts
system.mem_ctrls0.perBankWrBursts::3           274017                       # Per bank write bursts
system.mem_ctrls0.perBankWrBursts::4           274034                       # Per bank write bursts
system.mem_ctrls0.perBankWrBursts::5           273841                       # Per bank write bursts
system.mem_ctrls0.perBankWrBursts::6           273629                       # Per bank write bursts
system.mem_ctrls0.perBankWrBursts::7           273171                       # Per bank write bursts
system.mem_ctrls0.perBankWrBursts::8           272927                       # Per bank write bursts
system.mem_ctrls0.perBankWrBursts::9           272751                       # Per bank write bursts
system.mem_ctrls0.perBankWrBursts::10          273804                       # Per bank write bursts
system.mem_ctrls0.perBankWrBursts::11          275328                       # Per bank write bursts
system.mem_ctrls0.perBankWrBursts::12          274148                       # Per bank write bursts
system.mem_ctrls0.perBankWrBursts::13          272895                       # Per bank write bursts
system.mem_ctrls0.perBankWrBursts::14          273310                       # Per bank write bursts
system.mem_ctrls0.perBankWrBursts::15          274923                       # Per bank write bursts
system.mem_ctrls0.numRdRetry                        0                       # Number of times read queue was full causing retry
system.mem_ctrls0.numWrRetry                        0                       # Number of times write queue was full causing retry
system.mem_ctrls0.totGap                 2947794061860                       # Total gap between requests
system.mem_ctrls0.readPktSize::0                    0                       # Read request sizes (log2)
system.mem_ctrls0.readPktSize::1                    0                       # Read request sizes (log2)
system.mem_ctrls0.readPktSize::2                    0                       # Read request sizes (log2)
system.mem_ctrls0.readPktSize::3                    0                       # Read request sizes (log2)
system.mem_ctrls0.readPktSize::4                    0                       # Read request sizes (log2)
system.mem_ctrls0.readPktSize::5                    0                       # Read request sizes (log2)
system.mem_ctrls0.readPktSize::6              8198927                       # Read request sizes (log2)
system.mem_ctrls0.writePktSize::0                   0                       # Write request sizes (log2)
system.mem_ctrls0.writePktSize::1                   0                       # Write request sizes (log2)
system.mem_ctrls0.writePktSize::2                   0                       # Write request sizes (log2)
system.mem_ctrls0.writePktSize::3                   0                       # Write request sizes (log2)
system.mem_ctrls0.writePktSize::4                   0                       # Write request sizes (log2)
system.mem_ctrls0.writePktSize::5                   0                       # Write request sizes (log2)
system.mem_ctrls0.writePktSize::6             4381710                       # Write request sizes (log2)
system.mem_ctrls0.rdQLenPdf::0                7757781                       # What read queue length does an incoming req see
system.mem_ctrls0.rdQLenPdf::1                 322794                       # What read queue length does an incoming req see
system.mem_ctrls0.rdQLenPdf::2                 103489                       # What read queue length does an incoming req see
system.mem_ctrls0.rdQLenPdf::3                  14856                       # What read queue length does an incoming req see
system.mem_ctrls0.rdQLenPdf::4                      0                       # What read queue length does an incoming req see
system.mem_ctrls0.rdQLenPdf::5                      0                       # What read queue length does an incoming req see
system.mem_ctrls0.rdQLenPdf::6                      0                       # What read queue length does an incoming req see
system.mem_ctrls0.rdQLenPdf::7                      0                       # What read queue length does an incoming req see
system.mem_ctrls0.rdQLenPdf::8                      0                       # What read queue length does an incoming req see
system.mem_ctrls0.rdQLenPdf::9                      0                       # What read queue length does an incoming req see
system.mem_ctrls0.rdQLenPdf::10                     0                       # What read queue length does an incoming req see
system.mem_ctrls0.rdQLenPdf::11                     0                       # What read queue length does an incoming req see
system.mem_ctrls0.rdQLenPdf::12                     0                       # What read queue length does an incoming req see
system.mem_ctrls0.rdQLenPdf::13                     0                       # What read queue length does an incoming req see
system.mem_ctrls0.rdQLenPdf::14                     0                       # What read queue length does an incoming req see
system.mem_ctrls0.rdQLenPdf::15                     0                       # What read queue length does an incoming req see
system.mem_ctrls0.rdQLenPdf::16                     0                       # What read queue length does an incoming req see
system.mem_ctrls0.rdQLenPdf::17                     0                       # What read queue length does an incoming req see
system.mem_ctrls0.rdQLenPdf::18                     0                       # What read queue length does an incoming req see
system.mem_ctrls0.rdQLenPdf::19                     0                       # What read queue length does an incoming req see
system.mem_ctrls0.rdQLenPdf::20                     0                       # What read queue length does an incoming req see
system.mem_ctrls0.rdQLenPdf::21                     0                       # What read queue length does an incoming req see
system.mem_ctrls0.rdQLenPdf::22                     0                       # What read queue length does an incoming req see
system.mem_ctrls0.rdQLenPdf::23                     0                       # What read queue length does an incoming req see
system.mem_ctrls0.rdQLenPdf::24                     0                       # What read queue length does an incoming req see
system.mem_ctrls0.rdQLenPdf::25                     0                       # What read queue length does an incoming req see
system.mem_ctrls0.rdQLenPdf::26                     0                       # What read queue length does an incoming req see
system.mem_ctrls0.rdQLenPdf::27                     0                       # What read queue length does an incoming req see
system.mem_ctrls0.rdQLenPdf::28                     0                       # What read queue length does an incoming req see
system.mem_ctrls0.rdQLenPdf::29                     0                       # What read queue length does an incoming req see
system.mem_ctrls0.rdQLenPdf::30                     0                       # What read queue length does an incoming req see
system.mem_ctrls0.rdQLenPdf::31                     0                       # What read queue length does an incoming req see
system.mem_ctrls0.wrQLenPdf::0                      2                       # What write queue length does an incoming req see
system.mem_ctrls0.wrQLenPdf::1                      2                       # What write queue length does an incoming req see
system.mem_ctrls0.wrQLenPdf::2                      2                       # What write queue length does an incoming req see
system.mem_ctrls0.wrQLenPdf::3                      2                       # What write queue length does an incoming req see
system.mem_ctrls0.wrQLenPdf::4                      2                       # What write queue length does an incoming req see
system.mem_ctrls0.wrQLenPdf::5                      2                       # What write queue length does an incoming req see
system.mem_ctrls0.wrQLenPdf::6                      2                       # What write queue length does an incoming req see
system.mem_ctrls0.wrQLenPdf::7                      2                       # What write queue length does an incoming req see
system.mem_ctrls0.wrQLenPdf::8                      2                       # What write queue length does an incoming req see
system.mem_ctrls0.wrQLenPdf::9                      2                       # What write queue length does an incoming req see
system.mem_ctrls0.wrQLenPdf::10                     2                       # What write queue length does an incoming req see
system.mem_ctrls0.wrQLenPdf::11                     2                       # What write queue length does an incoming req see
system.mem_ctrls0.wrQLenPdf::12                     2                       # What write queue length does an incoming req see
system.mem_ctrls0.wrQLenPdf::13                     2                       # What write queue length does an incoming req see
system.mem_ctrls0.wrQLenPdf::14                     2                       # What write queue length does an incoming req see
system.mem_ctrls0.wrQLenPdf::15                149997                       # What write queue length does an incoming req see
system.mem_ctrls0.wrQLenPdf::16                157638                       # What write queue length does an incoming req see
system.mem_ctrls0.wrQLenPdf::17                246053                       # What write queue length does an incoming req see
system.mem_ctrls0.wrQLenPdf::18                253569                       # What write queue length does an incoming req see
system.mem_ctrls0.wrQLenPdf::19                254770                       # What write queue length does an incoming req see
system.mem_ctrls0.wrQLenPdf::20                254966                       # What write queue length does an incoming req see
system.mem_ctrls0.wrQLenPdf::21                255084                       # What write queue length does an incoming req see
system.mem_ctrls0.wrQLenPdf::22                255163                       # What write queue length does an incoming req see
system.mem_ctrls0.wrQLenPdf::23                255447                       # What write queue length does an incoming req see
system.mem_ctrls0.wrQLenPdf::24                255374                       # What write queue length does an incoming req see
system.mem_ctrls0.wrQLenPdf::25                255278                       # What write queue length does an incoming req see
system.mem_ctrls0.wrQLenPdf::26                255218                       # What write queue length does an incoming req see
system.mem_ctrls0.wrQLenPdf::27                255202                       # What write queue length does an incoming req see
system.mem_ctrls0.wrQLenPdf::28                255252                       # What write queue length does an incoming req see
system.mem_ctrls0.wrQLenPdf::29                255642                       # What write queue length does an incoming req see
system.mem_ctrls0.wrQLenPdf::30                257964                       # What write queue length does an incoming req see
system.mem_ctrls0.wrQLenPdf::31                254527                       # What write queue length does an incoming req see
system.mem_ctrls0.wrQLenPdf::32                254190                       # What write queue length does an incoming req see
system.mem_ctrls0.wrQLenPdf::33                   272                       # What write queue length does an incoming req see
system.mem_ctrls0.wrQLenPdf::34                    54                       # What write queue length does an incoming req see
system.mem_ctrls0.wrQLenPdf::35                    14                       # What write queue length does an incoming req see
system.mem_ctrls0.wrQLenPdf::36                     3                       # What write queue length does an incoming req see
system.mem_ctrls0.wrQLenPdf::37                     2                       # What write queue length does an incoming req see
system.mem_ctrls0.wrQLenPdf::38                     1                       # What write queue length does an incoming req see
system.mem_ctrls0.wrQLenPdf::39                     0                       # What write queue length does an incoming req see
system.mem_ctrls0.wrQLenPdf::40                     0                       # What write queue length does an incoming req see
system.mem_ctrls0.wrQLenPdf::41                     0                       # What write queue length does an incoming req see
system.mem_ctrls0.wrQLenPdf::42                     0                       # What write queue length does an incoming req see
system.mem_ctrls0.wrQLenPdf::43                     0                       # What write queue length does an incoming req see
system.mem_ctrls0.wrQLenPdf::44                     0                       # What write queue length does an incoming req see
system.mem_ctrls0.wrQLenPdf::45                     0                       # What write queue length does an incoming req see
system.mem_ctrls0.wrQLenPdf::46                     0                       # What write queue length does an incoming req see
system.mem_ctrls0.wrQLenPdf::47                     0                       # What write queue length does an incoming req see
system.mem_ctrls0.wrQLenPdf::48                     0                       # What write queue length does an incoming req see
system.mem_ctrls0.wrQLenPdf::49                     0                       # What write queue length does an incoming req see
system.mem_ctrls0.wrQLenPdf::50                     0                       # What write queue length does an incoming req see
system.mem_ctrls0.wrQLenPdf::51                     0                       # What write queue length does an incoming req see
system.mem_ctrls0.wrQLenPdf::52                     0                       # What write queue length does an incoming req see
system.mem_ctrls0.wrQLenPdf::53                     0                       # What write queue length does an incoming req see
system.mem_ctrls0.wrQLenPdf::54                     0                       # What write queue length does an incoming req see
system.mem_ctrls0.wrQLenPdf::55                     0                       # What write queue length does an incoming req see
system.mem_ctrls0.wrQLenPdf::56                     0                       # What write queue length does an incoming req see
system.mem_ctrls0.wrQLenPdf::57                     0                       # What write queue length does an incoming req see
system.mem_ctrls0.wrQLenPdf::58                     0                       # What write queue length does an incoming req see
system.mem_ctrls0.wrQLenPdf::59                     0                       # What write queue length does an incoming req see
system.mem_ctrls0.wrQLenPdf::60                     0                       # What write queue length does an incoming req see
system.mem_ctrls0.wrQLenPdf::61                     0                       # What write queue length does an incoming req see
system.mem_ctrls0.wrQLenPdf::62                     0                       # What write queue length does an incoming req see
system.mem_ctrls0.wrQLenPdf::63                     0                       # What write queue length does an incoming req see
system.mem_ctrls0.bytesPerActivate::samples      8861722                       # Bytes accessed per row activation
system.mem_ctrls0.bytesPerActivate::mean    90.857920                       # Bytes accessed per row activation
system.mem_ctrls0.bytesPerActivate::gmean    81.464687                       # Bytes accessed per row activation
system.mem_ctrls0.bytesPerActivate::stdev    53.866570                       # Bytes accessed per row activation
system.mem_ctrls0.bytesPerActivate::0-127      6440792     72.68%     72.68% # Bytes accessed per row activation
system.mem_ctrls0.bytesPerActivate::128-255      2104657     23.75%     96.43% # Bytes accessed per row activation
system.mem_ctrls0.bytesPerActivate::256-383       288840      3.26%     99.69% # Bytes accessed per row activation
system.mem_ctrls0.bytesPerActivate::384-511        20619      0.23%     99.92% # Bytes accessed per row activation
system.mem_ctrls0.bytesPerActivate::512-639         3574      0.04%     99.96% # Bytes accessed per row activation
system.mem_ctrls0.bytesPerActivate::640-767         1084      0.01%     99.98% # Bytes accessed per row activation
system.mem_ctrls0.bytesPerActivate::768-895          780      0.01%     99.98% # Bytes accessed per row activation
system.mem_ctrls0.bytesPerActivate::896-1023          420      0.00%     99.99% # Bytes accessed per row activation
system.mem_ctrls0.bytesPerActivate::1024-1151          956      0.01%    100.00% # Bytes accessed per row activation
system.mem_ctrls0.bytesPerActivate::total      8861722                       # Bytes accessed per row activation
system.mem_ctrls0.rdPerTurnAround::samples       253970                       # Reads before turning the bus around for writes
system.mem_ctrls0.rdPerTurnAround::mean     32.283026                       # Reads before turning the bus around for writes
system.mem_ctrls0.rdPerTurnAround::stdev    56.301438                       # Reads before turning the bus around for writes
system.mem_ctrls0.rdPerTurnAround::0-1023       253962    100.00%    100.00% # Reads before turning the bus around for writes
system.mem_ctrls0.rdPerTurnAround::1024-2047            7      0.00%    100.00% # Reads before turning the bus around for writes
system.mem_ctrls0.rdPerTurnAround::27648-28671            1      0.00%    100.00% # Reads before turning the bus around for writes
system.mem_ctrls0.rdPerTurnAround::total       253970                       # Reads before turning the bus around for writes
system.mem_ctrls0.wrPerTurnAround::samples       253969                       # Writes before turning the bus around for reads
system.mem_ctrls0.wrPerTurnAround::mean     17.252803                       # Writes before turning the bus around for reads
system.mem_ctrls0.wrPerTurnAround::gmean    17.222112                       # Writes before turning the bus around for reads
system.mem_ctrls0.wrPerTurnAround::stdev     1.023954                       # Writes before turning the bus around for reads
system.mem_ctrls0.wrPerTurnAround::16           96992     38.19%     38.19% # Writes before turning the bus around for reads
system.mem_ctrls0.wrPerTurnAround::17            6203      2.44%     40.63% # Writes before turning the bus around for reads
system.mem_ctrls0.wrPerTurnAround::18          141722     55.80%     96.44% # Writes before turning the bus around for reads
system.mem_ctrls0.wrPerTurnAround::19            7913      3.12%     99.55% # Writes before turning the bus around for reads
system.mem_ctrls0.wrPerTurnAround::20             982      0.39%     99.94% # Writes before turning the bus around for reads
system.mem_ctrls0.wrPerTurnAround::21             115      0.05%     99.98% # Writes before turning the bus around for reads
system.mem_ctrls0.wrPerTurnAround::22              25      0.01%     99.99% # Writes before turning the bus around for reads
system.mem_ctrls0.wrPerTurnAround::23              11      0.00%    100.00% # Writes before turning the bus around for reads
system.mem_ctrls0.wrPerTurnAround::24               2      0.00%    100.00% # Writes before turning the bus around for reads
system.mem_ctrls0.wrPerTurnAround::25               2      0.00%    100.00% # Writes before turning the bus around for reads
system.mem_ctrls0.wrPerTurnAround::27               1      0.00%    100.00% # Writes before turning the bus around for reads
system.mem_ctrls0.wrPerTurnAround::28               1      0.00%    100.00% # Writes before turning the bus around for reads
system.mem_ctrls0.wrPerTurnAround::total       253969                       # Writes before turning the bus around for reads
system.mem_ctrls0.totQLat                219470571422                       # Total ticks spent queuing
system.mem_ctrls0.totMemAccLat           373200321422                       # Total ticks spent from burst creation until serviced by the DRAM
system.mem_ctrls0.totBusLat               40994600000                       # Total ticks spent in databus transfers
system.mem_ctrls0.avgQLat                    26768.23                       # Average queueing delay per DRAM burst
system.mem_ctrls0.avgBusLat                   5000.00                       # Average bus latency per DRAM burst
system.mem_ctrls0.avgMemAccLat               45518.23                       # Average memory access latency per DRAM burst
system.mem_ctrls0.avgRdBW                      178.01                       # Average DRAM read bandwidth in MiByte/s
system.mem_ctrls0.avgWrBW                       95.13                       # Average achieved write bandwidth in MiByte/s
system.mem_ctrls0.avgRdBWSys                   178.01                       # Average system read bandwidth in MiByte/s
system.mem_ctrls0.avgWrBWSys                    95.13                       # Average system write bandwidth in MiByte/s
system.mem_ctrls0.peakBW                     12800.00                       # Theoretical peak bandwidth in MiByte/s
system.mem_ctrls0.busUtil                        2.13                       # Data bus utilization in percentage
system.mem_ctrls0.busUtilRead                    1.39                       # Data bus utilization in percentage for reads
system.mem_ctrls0.busUtilWrite                   0.74                       # Data bus utilization in percentage for writes
system.mem_ctrls0.avgRdQLen                      1.03                       # Average read queue length when enqueuing
system.mem_ctrls0.avgWrQLen                     24.76                       # Average write queue length when enqueuing
system.mem_ctrls0.readRowHits                 2830382                       # Number of row buffer hits during reads
system.mem_ctrls0.writeRowHits                 888494                       # Number of row buffer hits during writes
system.mem_ctrls0.readRowHitRate                34.52                       # Row buffer hit rate for reads
system.mem_ctrls0.writeRowHitRate               20.28                       # Row buffer hit rate for writes
system.mem_ctrls0.avgGap                    234311.99                       # Average gap between requests
system.mem_ctrls0.pageHitRate                   29.56                       # Row buffer hit rate, read and write combined
system.mem_ctrls0_0.actEnergy             31615070340                       # Energy for activate commands per rank (pJ)
system.mem_ctrls0_0.preEnergy             16803797010                       # Energy for precharge commands per rank (pJ)
system.mem_ctrls0_0.readEnergy            29275085280                       # Energy for read commands per rank (pJ)
system.mem_ctrls0_0.writeEnergy           11440125900                       # Energy for write commands per rank (pJ)
system.mem_ctrls0_0.refreshEnergy        232391081520.000061                       # Energy for refresh commands per rank (pJ)
system.mem_ctrls0_0.actBackEnergy        206156654370                       # Energy for active background per rank (pJ)
system.mem_ctrls0_0.preBackEnergy          6151569120                       # Energy for precharge background per rank (pJ)
system.mem_ctrls0_0.actPowerDownEnergy   979813206090                       # Energy for active power-down per rank (pJ)
system.mem_ctrls0_0.prePowerDownEnergy   104994536640                       # Energy for precharge power-down per rank (pJ)
system.mem_ctrls0_0.selfRefreshEnergy     17905484865                       # Energy for self refresh per rank (pJ)
system.mem_ctrls0_0.totalEnergy          1636574927835                       # Total energy per rank (pJ)
system.mem_ctrls0_0.averagePower           555.186307                       # Core power per rank (mW)
system.mem_ctrls0_0.totalIdleTime        2479609902923                       # Total Idle time Per DRAM Rank
system.mem_ctrls0_0.memoryStateTime::IDLE   4144841233                       # Time in different power states
system.mem_ctrls0_0.memoryStateTime::REF  98351622000                       # Time in different power states
system.mem_ctrls0_0.memoryStateTime::SREF  57477035087                       # Time in different power states
system.mem_ctrls0_0.memoryStateTime::PRE_PDN 273416888034                       # Time in different power states
system.mem_ctrls0_0.memoryStateTime::ACT 365687732001                       # Time in different power states
system.mem_ctrls0_0.memoryStateTime::ACT_PDN 2148715979802                       # Time in different power states
system.mem_ctrls0_1.actEnergy             31657646160                       # Energy for activate commands per rank (pJ)
system.mem_ctrls0_1.preEnergy             16826419005                       # Energy for precharge commands per rank (pJ)
system.mem_ctrls0_1.readEnergy            29265203520                       # Energy for read commands per rank (pJ)
system.mem_ctrls0_1.writeEnergy           11432238480                       # Energy for write commands per rank (pJ)
system.mem_ctrls0_1.refreshEnergy        232129859520.000061                       # Energy for refresh commands per rank (pJ)
system.mem_ctrls0_1.actBackEnergy        205940006490                       # Energy for active background per rank (pJ)
system.mem_ctrls0_1.preBackEnergy          6121284000                       # Energy for precharge background per rank (pJ)
system.mem_ctrls0_1.actPowerDownEnergy   981337913910                       # Energy for active power-down per rank (pJ)
system.mem_ctrls0_1.prePowerDownEnergy   103954707360                       # Energy for precharge power-down per rank (pJ)
system.mem_ctrls0_1.selfRefreshEnergy     17628280695                       # Energy for self refresh per rank (pJ)
system.mem_ctrls0_1.totalEnergy          1636323233790                       # Total energy per rank (pJ)
system.mem_ctrls0_1.averagePower           555.100923                       # Core power per rank (mW)
system.mem_ctrls0_1.totalIdleTime        2480166833939                       # Total Idle time Per DRAM Rank
system.mem_ctrls0_1.memoryStateTime::IDLE   4033749491                       # Time in different power states
system.mem_ctrls0_1.memoryStateTime::REF  98238560000                       # Time in different power states
system.mem_ctrls0_1.memoryStateTime::SREF  57392155241                       # Time in different power states
system.mem_ctrls0_1.memoryStateTime::PRE_PDN 270711979053                       # Time in different power states
system.mem_ctrls0_1.memoryStateTime::ACT 365354954727                       # Time in different power states
system.mem_ctrls0_1.memoryStateTime::ACT_PDN 2152062699645                       # Time in different power states
system.mem_ctrls1.pwrStateResidencyTicks::UNDEFINED 146424782415231                       # Cumulative time (in ticks) in various power states
system.mem_ctrls1.bytes_read::cpu.inst             64                       # Number of bytes read from this memory
system.mem_ctrls1.bytes_read::cpu.data             64                       # Number of bytes read from this memory
system.mem_ctrls1.bytes_read::switch_cpus.inst        20288                       # Number of bytes read from this memory
system.mem_ctrls1.bytes_read::switch_cpus.data    440852160                       # Number of bytes read from this memory
system.mem_ctrls1.bytes_read::switch_cpus_1.inst         6656                       # Number of bytes read from this memory
system.mem_ctrls1.bytes_read::switch_cpus_1.data     83813376                       # Number of bytes read from this memory
system.mem_ctrls1.bytes_read::total         524692608                       # Number of bytes read from this memory
system.mem_ctrls1.bytes_inst_read::cpu.inst           64                       # Number of instructions bytes read from this memory
system.mem_ctrls1.bytes_inst_read::switch_cpus.inst        20288                       # Number of instructions bytes read from this memory
system.mem_ctrls1.bytes_inst_read::switch_cpus_1.inst         6656                       # Number of instructions bytes read from this memory
system.mem_ctrls1.bytes_inst_read::total        27008                       # Number of instructions bytes read from this memory
system.mem_ctrls1.bytes_written::writebacks    280441984                       # Number of bytes written to this memory
system.mem_ctrls1.bytes_written::total      280441984                       # Number of bytes written to this memory
system.mem_ctrls1.num_reads::cpu.inst               1                       # Number of read requests responded to by this memory
system.mem_ctrls1.num_reads::cpu.data               1                       # Number of read requests responded to by this memory
system.mem_ctrls1.num_reads::switch_cpus.inst          317                       # Number of read requests responded to by this memory
system.mem_ctrls1.num_reads::switch_cpus.data      6888315                       # Number of read requests responded to by this memory
system.mem_ctrls1.num_reads::switch_cpus_1.inst          104                       # Number of read requests responded to by this memory
system.mem_ctrls1.num_reads::switch_cpus_1.data      1309584                       # Number of read requests responded to by this memory
system.mem_ctrls1.num_reads::total            8198322                       # Number of read requests responded to by this memory
system.mem_ctrls1.num_writes::writebacks      4381906                       # Number of write requests responded to by this memory
system.mem_ctrls1.num_writes::total           4381906                       # Number of write requests responded to by this memory
system.mem_ctrls1.bw_read::cpu.inst                22                       # Total read bandwidth from this memory (bytes/s)
system.mem_ctrls1.bw_read::cpu.data                22                       # Total read bandwidth from this memory (bytes/s)
system.mem_ctrls1.bw_read::switch_cpus.inst         6882                       # Total read bandwidth from this memory (bytes/s)
system.mem_ctrls1.bw_read::switch_cpus.data    149553241                       # Total read bandwidth from this memory (bytes/s)
system.mem_ctrls1.bw_read::switch_cpus_1.inst         2258                       # Total read bandwidth from this memory (bytes/s)
system.mem_ctrls1.bw_read::switch_cpus_1.data     28432575                       # Total read bandwidth from this memory (bytes/s)
system.mem_ctrls1.bw_read::total            177994999                       # Total read bandwidth from this memory (bytes/s)
system.mem_ctrls1.bw_inst_read::cpu.inst           22                       # Instruction read bandwidth from this memory (bytes/s)
system.mem_ctrls1.bw_inst_read::switch_cpus.inst         6882                       # Instruction read bandwidth from this memory (bytes/s)
system.mem_ctrls1.bw_inst_read::switch_cpus_1.inst         2258                       # Instruction read bandwidth from this memory (bytes/s)
system.mem_ctrls1.bw_inst_read::total            9162                       # Instruction read bandwidth from this memory (bytes/s)
system.mem_ctrls1.bw_write::writebacks       95136219                       # Write bandwidth from this memory (bytes/s)
system.mem_ctrls1.bw_write::total            95136219                       # Write bandwidth from this memory (bytes/s)
system.mem_ctrls1.bw_total::writebacks       95136219                       # Total bandwidth to/from this memory (bytes/s)
system.mem_ctrls1.bw_total::cpu.inst               22                       # Total bandwidth to/from this memory (bytes/s)
system.mem_ctrls1.bw_total::cpu.data               22                       # Total bandwidth to/from this memory (bytes/s)
system.mem_ctrls1.bw_total::switch_cpus.inst         6882                       # Total bandwidth to/from this memory (bytes/s)
system.mem_ctrls1.bw_total::switch_cpus.data    149553241                       # Total bandwidth to/from this memory (bytes/s)
system.mem_ctrls1.bw_total::switch_cpus_1.inst         2258                       # Total bandwidth to/from this memory (bytes/s)
system.mem_ctrls1.bw_total::switch_cpus_1.data     28432575                       # Total bandwidth to/from this memory (bytes/s)
system.mem_ctrls1.bw_total::total           273131218                       # Total bandwidth to/from this memory (bytes/s)
system.mem_ctrls1.readReqs                    8198322                       # Number of read requests accepted
system.mem_ctrls1.writeReqs                   4381906                       # Number of write requests accepted
system.mem_ctrls1.readBursts                  8198322                       # Number of DRAM read bursts, including those serviced by the write queue
system.mem_ctrls1.writeBursts                 4381906                       # Number of DRAM write bursts, including those merged in the write queue
system.mem_ctrls1.bytesReadDRAM             524692160                       # Total number of bytes read from DRAM
system.mem_ctrls1.bytesReadWrQ                    448                       # Total number of bytes read from write queue
system.mem_ctrls1.bytesWritten              280440128                       # Total number of bytes written to DRAM
system.mem_ctrls1.bytesReadSys              524692608                       # Total read bytes from the system interface side
system.mem_ctrls1.bytesWrittenSys           280441984                       # Total written bytes from the system interface side
system.mem_ctrls1.servicedByWrQ                     7                       # Number of DRAM read bursts serviced by the write queue
system.mem_ctrls1.mergedWrBursts                    0                       # Number of DRAM write bursts merged with an existing one
system.mem_ctrls1.neitherReadNorWriteReqs            0                       # Number of requests that are neither read nor write
system.mem_ctrls1.perBankRdBursts::0           512313                       # Per bank write bursts
system.mem_ctrls1.perBankRdBursts::1           512687                       # Per bank write bursts
system.mem_ctrls1.perBankRdBursts::2           511761                       # Per bank write bursts
system.mem_ctrls1.perBankRdBursts::3           513942                       # Per bank write bursts
system.mem_ctrls1.perBankRdBursts::4           513110                       # Per bank write bursts
system.mem_ctrls1.perBankRdBursts::5           511950                       # Per bank write bursts
system.mem_ctrls1.perBankRdBursts::6           511723                       # Per bank write bursts
system.mem_ctrls1.perBankRdBursts::7           512443                       # Per bank write bursts
system.mem_ctrls1.perBankRdBursts::8           512837                       # Per bank write bursts
system.mem_ctrls1.perBankRdBursts::9           511377                       # Per bank write bursts
system.mem_ctrls1.perBankRdBursts::10          511189                       # Per bank write bursts
system.mem_ctrls1.perBankRdBursts::11          512571                       # Per bank write bursts
system.mem_ctrls1.perBankRdBursts::12          512670                       # Per bank write bursts
system.mem_ctrls1.perBankRdBursts::13          512376                       # Per bank write bursts
system.mem_ctrls1.perBankRdBursts::14          512401                       # Per bank write bursts
system.mem_ctrls1.perBankRdBursts::15          512965                       # Per bank write bursts
system.mem_ctrls1.perBankWrBursts::0           275380                       # Per bank write bursts
system.mem_ctrls1.perBankWrBursts::1           274118                       # Per bank write bursts
system.mem_ctrls1.perBankWrBursts::2           273284                       # Per bank write bursts
system.mem_ctrls1.perBankWrBursts::3           274156                       # Per bank write bursts
system.mem_ctrls1.perBankWrBursts::4           273966                       # Per bank write bursts
system.mem_ctrls1.perBankWrBursts::5           273865                       # Per bank write bursts
system.mem_ctrls1.perBankWrBursts::6           273700                       # Per bank write bursts
system.mem_ctrls1.perBankWrBursts::7           273086                       # Per bank write bursts
system.mem_ctrls1.perBankWrBursts::8           273037                       # Per bank write bursts
system.mem_ctrls1.perBankWrBursts::9           272695                       # Per bank write bursts
system.mem_ctrls1.perBankWrBursts::10          273867                       # Per bank write bursts
system.mem_ctrls1.perBankWrBursts::11          275285                       # Per bank write bursts
system.mem_ctrls1.perBankWrBursts::12          274160                       # Per bank write bursts
system.mem_ctrls1.perBankWrBursts::13          272958                       # Per bank write bursts
system.mem_ctrls1.perBankWrBursts::14          273340                       # Per bank write bursts
system.mem_ctrls1.perBankWrBursts::15          274980                       # Per bank write bursts
system.mem_ctrls1.numRdRetry                        0                       # Number of times read queue was full causing retry
system.mem_ctrls1.numWrRetry                        0                       # Number of times write queue was full causing retry
system.mem_ctrls1.totGap                 2947793843079                       # Total gap between requests
system.mem_ctrls1.readPktSize::0                    0                       # Read request sizes (log2)
system.mem_ctrls1.readPktSize::1                    0                       # Read request sizes (log2)
system.mem_ctrls1.readPktSize::2                    0                       # Read request sizes (log2)
system.mem_ctrls1.readPktSize::3                    0                       # Read request sizes (log2)
system.mem_ctrls1.readPktSize::4                    0                       # Read request sizes (log2)
system.mem_ctrls1.readPktSize::5                    0                       # Read request sizes (log2)
system.mem_ctrls1.readPktSize::6              8198322                       # Read request sizes (log2)
system.mem_ctrls1.writePktSize::0                   0                       # Write request sizes (log2)
system.mem_ctrls1.writePktSize::1                   0                       # Write request sizes (log2)
system.mem_ctrls1.writePktSize::2                   0                       # Write request sizes (log2)
system.mem_ctrls1.writePktSize::3                   0                       # Write request sizes (log2)
system.mem_ctrls1.writePktSize::4                   0                       # Write request sizes (log2)
system.mem_ctrls1.writePktSize::5                   0                       # Write request sizes (log2)
system.mem_ctrls1.writePktSize::6             4381906                       # Write request sizes (log2)
system.mem_ctrls1.rdQLenPdf::0                7757083                       # What read queue length does an incoming req see
system.mem_ctrls1.rdQLenPdf::1                 323078                       # What read queue length does an incoming req see
system.mem_ctrls1.rdQLenPdf::2                 103263                       # What read queue length does an incoming req see
system.mem_ctrls1.rdQLenPdf::3                  14890                       # What read queue length does an incoming req see
system.mem_ctrls1.rdQLenPdf::4                      1                       # What read queue length does an incoming req see
system.mem_ctrls1.rdQLenPdf::5                      0                       # What read queue length does an incoming req see
system.mem_ctrls1.rdQLenPdf::6                      0                       # What read queue length does an incoming req see
system.mem_ctrls1.rdQLenPdf::7                      0                       # What read queue length does an incoming req see
system.mem_ctrls1.rdQLenPdf::8                      0                       # What read queue length does an incoming req see
system.mem_ctrls1.rdQLenPdf::9                      0                       # What read queue length does an incoming req see
system.mem_ctrls1.rdQLenPdf::10                     0                       # What read queue length does an incoming req see
system.mem_ctrls1.rdQLenPdf::11                     0                       # What read queue length does an incoming req see
system.mem_ctrls1.rdQLenPdf::12                     0                       # What read queue length does an incoming req see
system.mem_ctrls1.rdQLenPdf::13                     0                       # What read queue length does an incoming req see
system.mem_ctrls1.rdQLenPdf::14                     0                       # What read queue length does an incoming req see
system.mem_ctrls1.rdQLenPdf::15                     0                       # What read queue length does an incoming req see
system.mem_ctrls1.rdQLenPdf::16                     0                       # What read queue length does an incoming req see
system.mem_ctrls1.rdQLenPdf::17                     0                       # What read queue length does an incoming req see
system.mem_ctrls1.rdQLenPdf::18                     0                       # What read queue length does an incoming req see
system.mem_ctrls1.rdQLenPdf::19                     0                       # What read queue length does an incoming req see
system.mem_ctrls1.rdQLenPdf::20                     0                       # What read queue length does an incoming req see
system.mem_ctrls1.rdQLenPdf::21                     0                       # What read queue length does an incoming req see
system.mem_ctrls1.rdQLenPdf::22                     0                       # What read queue length does an incoming req see
system.mem_ctrls1.rdQLenPdf::23                     0                       # What read queue length does an incoming req see
system.mem_ctrls1.rdQLenPdf::24                     0                       # What read queue length does an incoming req see
system.mem_ctrls1.rdQLenPdf::25                     0                       # What read queue length does an incoming req see
system.mem_ctrls1.rdQLenPdf::26                     0                       # What read queue length does an incoming req see
system.mem_ctrls1.rdQLenPdf::27                     0                       # What read queue length does an incoming req see
system.mem_ctrls1.rdQLenPdf::28                     0                       # What read queue length does an incoming req see
system.mem_ctrls1.rdQLenPdf::29                     0                       # What read queue length does an incoming req see
system.mem_ctrls1.rdQLenPdf::30                     0                       # What read queue length does an incoming req see
system.mem_ctrls1.rdQLenPdf::31                     0                       # What read queue length does an incoming req see
system.mem_ctrls1.wrQLenPdf::0                      2                       # What write queue length does an incoming req see
system.mem_ctrls1.wrQLenPdf::1                      2                       # What write queue length does an incoming req see
system.mem_ctrls1.wrQLenPdf::2                      2                       # What write queue length does an incoming req see
system.mem_ctrls1.wrQLenPdf::3                      2                       # What write queue length does an incoming req see
system.mem_ctrls1.wrQLenPdf::4                      2                       # What write queue length does an incoming req see
system.mem_ctrls1.wrQLenPdf::5                      2                       # What write queue length does an incoming req see
system.mem_ctrls1.wrQLenPdf::6                      2                       # What write queue length does an incoming req see
system.mem_ctrls1.wrQLenPdf::7                      2                       # What write queue length does an incoming req see
system.mem_ctrls1.wrQLenPdf::8                      2                       # What write queue length does an incoming req see
system.mem_ctrls1.wrQLenPdf::9                      2                       # What write queue length does an incoming req see
system.mem_ctrls1.wrQLenPdf::10                     2                       # What write queue length does an incoming req see
system.mem_ctrls1.wrQLenPdf::11                     2                       # What write queue length does an incoming req see
system.mem_ctrls1.wrQLenPdf::12                     2                       # What write queue length does an incoming req see
system.mem_ctrls1.wrQLenPdf::13                     2                       # What write queue length does an incoming req see
system.mem_ctrls1.wrQLenPdf::14                     2                       # What write queue length does an incoming req see
system.mem_ctrls1.wrQLenPdf::15                149775                       # What write queue length does an incoming req see
system.mem_ctrls1.wrQLenPdf::16                157375                       # What write queue length does an incoming req see
system.mem_ctrls1.wrQLenPdf::17                245820                       # What write queue length does an incoming req see
system.mem_ctrls1.wrQLenPdf::18                253651                       # What write queue length does an incoming req see
system.mem_ctrls1.wrQLenPdf::19                254768                       # What write queue length does an incoming req see
system.mem_ctrls1.wrQLenPdf::20                255011                       # What write queue length does an incoming req see
system.mem_ctrls1.wrQLenPdf::21                255107                       # What write queue length does an incoming req see
system.mem_ctrls1.wrQLenPdf::22                255190                       # What write queue length does an incoming req see
system.mem_ctrls1.wrQLenPdf::23                255488                       # What write queue length does an incoming req see
system.mem_ctrls1.wrQLenPdf::24                255480                       # What write queue length does an incoming req see
system.mem_ctrls1.wrQLenPdf::25                255317                       # What write queue length does an incoming req see
system.mem_ctrls1.wrQLenPdf::26                255299                       # What write queue length does an incoming req see
system.mem_ctrls1.wrQLenPdf::27                255274                       # What write queue length does an incoming req see
system.mem_ctrls1.wrQLenPdf::28                255311                       # What write queue length does an incoming req see
system.mem_ctrls1.wrQLenPdf::29                255843                       # What write queue length does an incoming req see
system.mem_ctrls1.wrQLenPdf::30                258057                       # What write queue length does an incoming req see
system.mem_ctrls1.wrQLenPdf::31                254553                       # What write queue length does an incoming req see
system.mem_ctrls1.wrQLenPdf::32                254246                       # What write queue length does an incoming req see
system.mem_ctrls1.wrQLenPdf::33                   248                       # What write queue length does an incoming req see
system.mem_ctrls1.wrQLenPdf::34                    52                       # What write queue length does an incoming req see
system.mem_ctrls1.wrQLenPdf::35                     9                       # What write queue length does an incoming req see
system.mem_ctrls1.wrQLenPdf::36                     2                       # What write queue length does an incoming req see
system.mem_ctrls1.wrQLenPdf::37                     0                       # What write queue length does an incoming req see
system.mem_ctrls1.wrQLenPdf::38                     0                       # What write queue length does an incoming req see
system.mem_ctrls1.wrQLenPdf::39                     0                       # What write queue length does an incoming req see
system.mem_ctrls1.wrQLenPdf::40                     0                       # What write queue length does an incoming req see
system.mem_ctrls1.wrQLenPdf::41                     0                       # What write queue length does an incoming req see
system.mem_ctrls1.wrQLenPdf::42                     0                       # What write queue length does an incoming req see
system.mem_ctrls1.wrQLenPdf::43                     0                       # What write queue length does an incoming req see
system.mem_ctrls1.wrQLenPdf::44                     0                       # What write queue length does an incoming req see
system.mem_ctrls1.wrQLenPdf::45                     0                       # What write queue length does an incoming req see
system.mem_ctrls1.wrQLenPdf::46                     0                       # What write queue length does an incoming req see
system.mem_ctrls1.wrQLenPdf::47                     0                       # What write queue length does an incoming req see
system.mem_ctrls1.wrQLenPdf::48                     0                       # What write queue length does an incoming req see
system.mem_ctrls1.wrQLenPdf::49                     0                       # What write queue length does an incoming req see
system.mem_ctrls1.wrQLenPdf::50                     0                       # What write queue length does an incoming req see
system.mem_ctrls1.wrQLenPdf::51                     0                       # What write queue length does an incoming req see
system.mem_ctrls1.wrQLenPdf::52                     0                       # What write queue length does an incoming req see
system.mem_ctrls1.wrQLenPdf::53                     0                       # What write queue length does an incoming req see
system.mem_ctrls1.wrQLenPdf::54                     0                       # What write queue length does an incoming req see
system.mem_ctrls1.wrQLenPdf::55                     0                       # What write queue length does an incoming req see
system.mem_ctrls1.wrQLenPdf::56                     0                       # What write queue length does an incoming req see
system.mem_ctrls1.wrQLenPdf::57                     0                       # What write queue length does an incoming req see
system.mem_ctrls1.wrQLenPdf::58                     0                       # What write queue length does an incoming req see
system.mem_ctrls1.wrQLenPdf::59                     0                       # What write queue length does an incoming req see
system.mem_ctrls1.wrQLenPdf::60                     0                       # What write queue length does an incoming req see
system.mem_ctrls1.wrQLenPdf::61                     0                       # What write queue length does an incoming req see
system.mem_ctrls1.wrQLenPdf::62                     0                       # What write queue length does an incoming req see
system.mem_ctrls1.wrQLenPdf::63                     0                       # What write queue length does an incoming req see
system.mem_ctrls1.bytesPerActivate::samples      8862080                       # Bytes accessed per row activation
system.mem_ctrls1.bytesPerActivate::mean    90.851361                       # Bytes accessed per row activation
system.mem_ctrls1.bytesPerActivate::gmean    81.457717                       # Bytes accessed per row activation
system.mem_ctrls1.bytesPerActivate::stdev    53.889644                       # Bytes accessed per row activation
system.mem_ctrls1.bytesPerActivate::0-127      6441708     72.69%     72.69% # Bytes accessed per row activation
system.mem_ctrls1.bytesPerActivate::128-255      2104056     23.74%     96.43% # Bytes accessed per row activation
system.mem_ctrls1.bytesPerActivate::256-383       288572      3.26%     99.69% # Bytes accessed per row activation
system.mem_ctrls1.bytesPerActivate::384-511        20862      0.24%     99.92% # Bytes accessed per row activation
system.mem_ctrls1.bytesPerActivate::512-639         3682      0.04%     99.96% # Bytes accessed per row activation
system.mem_ctrls1.bytesPerActivate::640-767         1072      0.01%     99.98% # Bytes accessed per row activation
system.mem_ctrls1.bytesPerActivate::768-895          756      0.01%     99.98% # Bytes accessed per row activation
system.mem_ctrls1.bytesPerActivate::896-1023          396      0.00%     99.99% # Bytes accessed per row activation
system.mem_ctrls1.bytesPerActivate::1024-1151          976      0.01%    100.00% # Bytes accessed per row activation
system.mem_ctrls1.bytesPerActivate::total      8862080                       # Bytes accessed per row activation
system.mem_ctrls1.rdPerTurnAround::samples       254016                       # Reads before turning the bus around for writes
system.mem_ctrls1.rdPerTurnAround::mean     32.274798                       # Reads before turning the bus around for writes
system.mem_ctrls1.rdPerTurnAround::stdev    56.159895                       # Reads before turning the bus around for writes
system.mem_ctrls1.rdPerTurnAround::0-1023       254008    100.00%    100.00% # Reads before turning the bus around for writes
system.mem_ctrls1.rdPerTurnAround::1024-2047            7      0.00%    100.00% # Reads before turning the bus around for writes
system.mem_ctrls1.rdPerTurnAround::27648-28671            1      0.00%    100.00% # Reads before turning the bus around for writes
system.mem_ctrls1.rdPerTurnAround::total       254016                       # Reads before turning the bus around for writes
system.mem_ctrls1.wrPerTurnAround::samples       254015                       # Writes before turning the bus around for reads
system.mem_ctrls1.wrPerTurnAround::mean     17.250450                       # Writes before turning the bus around for reads
system.mem_ctrls1.wrPerTurnAround::gmean    17.219693                       # Writes before turning the bus around for reads
system.mem_ctrls1.wrPerTurnAround::stdev     1.025110                       # Writes before turning the bus around for reads
system.mem_ctrls1.wrPerTurnAround::16           97356     38.33%     38.33% # Writes before turning the bus around for reads
system.mem_ctrls1.wrPerTurnAround::17            6192      2.44%     40.76% # Writes before turning the bus around for reads
system.mem_ctrls1.wrPerTurnAround::18          141351     55.65%     96.41% # Writes before turning the bus around for reads
system.mem_ctrls1.wrPerTurnAround::19            7963      3.13%     99.55% # Writes before turning the bus around for reads
system.mem_ctrls1.wrPerTurnAround::20             992      0.39%     99.94% # Writes before turning the bus around for reads
system.mem_ctrls1.wrPerTurnAround::21             114      0.04%     99.98% # Writes before turning the bus around for reads
system.mem_ctrls1.wrPerTurnAround::22              29      0.01%     99.99% # Writes before turning the bus around for reads
system.mem_ctrls1.wrPerTurnAround::23              13      0.01%    100.00% # Writes before turning the bus around for reads
system.mem_ctrls1.wrPerTurnAround::24               2      0.00%    100.00% # Writes before turning the bus around for reads
system.mem_ctrls1.wrPerTurnAround::26               2      0.00%    100.00% # Writes before turning the bus around for reads
system.mem_ctrls1.wrPerTurnAround::27               1      0.00%    100.00% # Writes before turning the bus around for reads
system.mem_ctrls1.wrPerTurnAround::total       254015                       # Writes before turning the bus around for reads
system.mem_ctrls1.totQLat                219504307552                       # Total ticks spent queuing
system.mem_ctrls1.totMemAccLat           373222713802                       # Total ticks spent from burst creation until serviced by the DRAM
system.mem_ctrls1.totBusLat               40991575000                       # Total ticks spent in databus transfers
system.mem_ctrls1.avgQLat                    26774.32                       # Average queueing delay per DRAM burst
system.mem_ctrls1.avgBusLat                   5000.00                       # Average bus latency per DRAM burst
system.mem_ctrls1.avgMemAccLat               45524.32                       # Average memory access latency per DRAM burst
system.mem_ctrls1.avgRdBW                      177.99                       # Average DRAM read bandwidth in MiByte/s
system.mem_ctrls1.avgWrBW                       95.14                       # Average achieved write bandwidth in MiByte/s
system.mem_ctrls1.avgRdBWSys                   177.99                       # Average system read bandwidth in MiByte/s
system.mem_ctrls1.avgWrBWSys                    95.14                       # Average system write bandwidth in MiByte/s
system.mem_ctrls1.peakBW                     12800.00                       # Theoretical peak bandwidth in MiByte/s
system.mem_ctrls1.busUtil                        2.13                       # Data bus utilization in percentage
system.mem_ctrls1.busUtilRead                    1.39                       # Data bus utilization in percentage for reads
system.mem_ctrls1.busUtilWrite                   0.74                       # Data bus utilization in percentage for writes
system.mem_ctrls1.avgRdQLen                      1.03                       # Average read queue length when enqueuing
system.mem_ctrls1.avgWrQLen                     24.77                       # Average write queue length when enqueuing
system.mem_ctrls1.readRowHits                 2830202                       # Number of row buffer hits during reads
system.mem_ctrls1.writeRowHits                 887907                       # Number of row buffer hits during writes
system.mem_ctrls1.readRowHitRate                34.52                       # Row buffer hit rate for reads
system.mem_ctrls1.writeRowHitRate               20.26                       # Row buffer hit rate for writes
system.mem_ctrls1.avgGap                    234319.59                       # Average gap between requests
system.mem_ctrls1.pageHitRate                   29.56                       # Row buffer hit rate, read and write combined
system.mem_ctrls1_0.actEnergy             31619946960                       # Energy for activate commands per rank (pJ)
system.mem_ctrls1_0.preEnergy             16806388995                       # Energy for precharge commands per rank (pJ)
system.mem_ctrls1_0.readEnergy            29273493060                       # Energy for read commands per rank (pJ)
system.mem_ctrls1_0.writeEnergy           11439906660                       # Energy for write commands per rank (pJ)
system.mem_ctrls1_0.refreshEnergy        232349900640.000061                       # Energy for refresh commands per rank (pJ)
system.mem_ctrls1_0.actBackEnergy        206356970610                       # Energy for active background per rank (pJ)
system.mem_ctrls1_0.preBackEnergy          6146248800                       # Energy for precharge background per rank (pJ)
system.mem_ctrls1_0.actPowerDownEnergy   979449146520                       # Energy for active power-down per rank (pJ)
system.mem_ctrls1_0.prePowerDownEnergy   105031156320                       # Energy for precharge power-down per rank (pJ)
system.mem_ctrls1_0.selfRefreshEnergy     17954093745                       # Energy for self refresh per rank (pJ)
system.mem_ctrls1_0.totalEnergy          1636460845020                       # Total energy per rank (pJ)
system.mem_ctrls1_0.averagePower           555.147604                       # Core power per rank (mW)
system.mem_ctrls1_0.totalIdleTime        2479191752316                       # Total Idle time Per DRAM Rank
system.mem_ctrls1_0.memoryStateTime::IDLE   4143184254                       # Time in different power states
system.mem_ctrls1_0.memoryStateTime::REF  98334082000                       # Time in different power states
system.mem_ctrls1_0.memoryStateTime::SREF  57742865322                       # Time in different power states
system.mem_ctrls1_0.memoryStateTime::PRE_PDN 273520975030                       # Time in different power states
system.mem_ctrls1_0.memoryStateTime::ACT 366125079587                       # Time in different power states
system.mem_ctrls1_0.memoryStateTime::ACT_PDN 2147927911964                       # Time in different power states
system.mem_ctrls1_1.actEnergy             31655318520                       # Energy for activate commands per rank (pJ)
system.mem_ctrls1_1.preEnergy             16825193220                       # Energy for precharge commands per rank (pJ)
system.mem_ctrls1_1.readEnergy            29262476040                       # Energy for read commands per rank (pJ)
system.mem_ctrls1_1.writeEnergy           11433470400                       # Energy for write commands per rank (pJ)
system.mem_ctrls1_1.refreshEnergy        232094210400.000061                       # Energy for refresh commands per rank (pJ)
system.mem_ctrls1_1.actBackEnergy        205420199550                       # Energy for active background per rank (pJ)
system.mem_ctrls1_1.preBackEnergy          6124949280                       # Energy for precharge background per rank (pJ)
system.mem_ctrls1_1.actPowerDownEnergy   981608150340                       # Energy for active power-down per rank (pJ)
system.mem_ctrls1_1.prePowerDownEnergy   103820530080                       # Energy for precharge power-down per rank (pJ)
system.mem_ctrls1_1.selfRefreshEnergy     17873319075                       # Energy for self refresh per rank (pJ)
system.mem_ctrls1_1.totalEnergy          1636148076615                       # Total energy per rank (pJ)
system.mem_ctrls1_1.averagePower           555.041503                       # Core power per rank (mW)
system.mem_ctrls1_1.totalIdleTime        2481302629269                       # Total Idle time Per DRAM Rank
system.mem_ctrls1_1.memoryStateTime::IDLE   4044831305                       # Time in different power states
system.mem_ctrls1_1.memoryStateTime::REF  98223558000                       # Time in different power states
system.mem_ctrls1_1.memoryStateTime::SREF  58278136489                       # Time in different power states
system.mem_ctrls1_1.memoryStateTime::PRE_PDN 270366793417                       # Time in different power states
system.mem_ctrls1_1.memoryStateTime::ACT 364223079583                       # Time in different power states
system.mem_ctrls1_1.memoryStateTime::ACT_PDN 2152657699363                       # Time in different power states
system.pwrStateResidencyTicks::UNDEFINED 146424782415231                       # Cumulative time (in ticks) in various power states
system.cpu.branchPred.lookups                       0                       # Number of BP lookups
system.cpu.branchPred.condPredicted                 0                       # Number of conditional branches predicted
system.cpu.branchPred.condIncorrect                 0                       # Number of conditional branches incorrect
system.cpu.branchPred.BTBLookups                    0                       # Number of BTB lookups
system.cpu.branchPred.BTBHits                       0                       # Number of BTB hits
system.cpu.branchPred.BTBCorrect                    0                       # Number of correct BTB predictions (this stat may not work properly.
system.cpu.branchPred.BTBHitPct                   nan                       # BTB Hit Percentage
system.cpu.branchPred.usedRAS                       0                       # Number of times the RAS was used to get a target.
system.cpu.branchPred.RASInCorrect                  0                       # Number of incorrect RAS predictions.
system.cpu.branchPred.indirectLookups               0                       # Number of indirect predictor lookups.
system.cpu.branchPred.indirectHits                  0                       # Number of indirect target hits.
system.cpu.branchPred.indirectMisses                0                       # Number of indirect misses.
system.cpu.branchPredindirectMispredicted            0                       # Number of mispredicted indirect branches.
system.cpu_voltage_domain.voltage                   1                       # Voltage in Volts
system.cpu_clk_domain.clock                       333                       # Clock period in ticks
system.cpu.dtb.fetch_hits                           0                       # ITB hits
system.cpu.dtb.fetch_misses                         0                       # ITB misses
system.cpu.dtb.fetch_acv                            0                       # ITB acv
system.cpu.dtb.fetch_accesses                       0                       # ITB accesses
system.cpu.dtb.read_hits                           13                       # DTB read hits
system.cpu.dtb.read_misses                          0                       # DTB read misses
system.cpu.dtb.read_acv                             0                       # DTB read access violations
system.cpu.dtb.read_accesses                       13                       # DTB read accesses
system.cpu.dtb.write_hits                           0                       # DTB write hits
system.cpu.dtb.write_misses                         0                       # DTB write misses
system.cpu.dtb.write_acv                            0                       # DTB write access violations
system.cpu.dtb.write_accesses                       0                       # DTB write accesses
system.cpu.dtb.data_hits                           13                       # DTB hits
system.cpu.dtb.data_misses                          0                       # DTB misses
system.cpu.dtb.data_acv                             0                       # DTB access violations
system.cpu.dtb.data_accesses                       13                       # DTB accesses
system.cpu.itb.fetch_hits                           4                       # ITB hits
system.cpu.itb.fetch_misses                         0                       # ITB misses
system.cpu.itb.fetch_acv                            0                       # ITB acv
system.cpu.itb.fetch_accesses                       4                       # ITB accesses
system.cpu.itb.read_hits                            0                       # DTB read hits
system.cpu.itb.read_misses                          0                       # DTB read misses
system.cpu.itb.read_acv                             0                       # DTB read access violations
system.cpu.itb.read_accesses                        0                       # DTB read accesses
system.cpu.itb.write_hits                           0                       # DTB write hits
system.cpu.itb.write_misses                         0                       # DTB write misses
system.cpu.itb.write_acv                            0                       # DTB write access violations
system.cpu.itb.write_accesses                       0                       # DTB write accesses
system.cpu.itb.data_hits                            0                       # DTB hits
system.cpu.itb.data_misses                          0                       # DTB misses
system.cpu.itb.data_acv                             0                       # DTB access violations
system.cpu.itb.data_accesses                        0                       # DTB accesses
system.cpu.workload.num_syscalls                    0                       # Number of system calls
system.cpu.pwrStateResidencyTicks::ON    2947794098157                       # Cumulative time (in ticks) in various power states
system.cpu.numCycles                              726                       # number of cpu cycles simulated
system.cpu.numWorkItemsStarted                      0                       # number of work items this cpu started
system.cpu.numWorkItemsCompleted                    0                       # number of work items this cpu completed
system.cpu.fetch.icacheStallCycles                 51                       # Number of cycles fetch is stalled on an Icache miss
system.cpu.fetch.Insts                             23                       # Number of instructions fetch has processed
system.cpu.fetch.Cycles                             3                       # Number of cycles fetch has run and was not squashing or blocked
system.cpu.fetch.SquashCycles                       3                       # Number of cycles fetch has spent squashing
system.cpu.fetch.PendingDrainCycles                 7                       # Number of cycles fetch has spent waiting on pipes to drain
system.cpu.fetch.CacheLines                         4                       # Number of cache lines fetched
system.cpu.fetch.IcacheSquashes                     2                       # Number of outstanding Icache misses that were squashed
system.cpu.fetch.rateDist::samples                 62                       # Number of instructions fetched each cycle (Total)
system.cpu.fetch.rateDist::mean              0.370968                       # Number of instructions fetched each cycle (Total)
[...]
system.switch_cpus_1.iq.fu_busy_rate         0.055180                       # FU busy rate (busy events/executed inst)
system.switch_cpus_1.iq.int_inst_queue_reads    672340940                       # Number of integer instruction queue reads
system.switch_cpus_1.iq.int_inst_queue_writes     79842248                       # Number of integer instruction queue writes
system.switch_cpus_1.iq.int_inst_queue_wakeup_accesses     72915310                       # Number of integer instruction queue wakeup accesses
system.switch_cpus_1.iq.fp_inst_queue_reads    313088796                       # Number of floating instruction queue reads
system.switch_cpus_1.iq.fp_inst_queue_writes    167481382                       # Number of floating instruction queue writes
system.switch_cpus_1.iq.fp_inst_queue_wakeup_accesses    142528634                       # Number of floating instruction queue wakeup accesses
system.switch_cpus_1.iq.int_alu_accesses     81266890                       # Number of integer alu accesses
system.switch_cpus_1.iq.fp_alu_accesses     160055242                       # Number of floating point alu accesses
system.switch_cpus_1.iew.lsq.thread0.forwLoads       563619                       # Number of loads that had data forwarded from stores
system.switch_cpus_1.iew.lsq.thread0.invAddrLoads            0                       # Number of loads ignored due to an invalid address
system.switch_cpus_1.iew.lsq.thread0.squashedLoads      9699052                       # Number of loads squashed
system.switch_cpus_1.iew.lsq.thread0.ignoredResponses           32                       # Number of memory responses ignored because the instruction is squashed
system.switch_cpus_1.iew.lsq.thread0.memOrderViolation          539                       # Number of memory ordering violations
system.switch_cpus_1.iew.lsq.thread0.squashedStores      1086806                       # Number of stores squashed
system.switch_cpus_1.iew.lsq.thread0.invAddrSwpfs            0                       # Number of software prefetches ignored due to an invalid address
system.switch_cpus_1.iew.lsq.thread0.blockedLoads            0                       # Number of blocked loads due to partial load-store forwarding
system.switch_cpus_1.iew.lsq.thread0.rescheduledLoads            0                       # Number of loads that were rescheduled
system.switch_cpus_1.iew.lsq.thread0.cacheBlocked     11859682                       # Number of times an access to memory failed due to the cache being blocked
system.switch_cpus_1.iew.iewIdleCycles              0                       # Number of cycles IEW is idle
system.switch_cpus_1.iew.iewSquashCycles       306917                       # Number of cycles IEW is squashing
system.switch_cpus_1.iew.iewBlockCycles      12552067                       # Number of cycles IEW is blocking
system.switch_cpus_1.iew.iewUnblockCycles    154148603                       # Number of cycles IEW is unblocking
system.switch_cpus_1.iew.iewDispatchedInsts    223847629                       # Number of instructions dispatched to IQ
system.switch_cpus_1.iew.iewDispSquashedInsts         1887                       # Number of squashed instructions skipped by dispatch
system.switch_cpus_1.iew.iewDispLoadInsts     93114660                       # Number of dispatched load instructions
system.switch_cpus_1.iew.iewDispStoreInsts     11679253                       # Number of dispatched store instructions
system.switch_cpus_1.iew.iewDispNonSpecInsts            0                       # Number of dispatched non-speculative instructions
system.switch_cpus_1.iew.iewIQFullEvents        21455                       # Number of times the IQ has become full, causing a stall
system.switch_cpus_1.iew.iewLSQFullEvents    154104567                       # Number of times the LSQ has become full, causing a stall
system.switch_cpus_1.iew.memOrderViolationEvents          539                       # Number of memory order violations
system.switch_cpus_1.iew.predictedTakenIncorrect         3860                       # Number of branches that were predicted taken incorrectly
system.switch_cpus_1.iew.predictedNotTakenIncorrect          457                       # Number of branches that were predicted not taken incorrectly
system.switch_cpus_1.iew.branchMispredicts         4317                       # Number of branch mispredicts detected at execute
system.switch_cpus_1.iew.iewExecutedInsts    228634484                       # Number of executed instructions
system.switch_cpus_1.iew.iewExecLoadInsts    104230348                       # Number of load instructions executed
system.switch_cpus_1.iew.iewExecSquashedInsts        67913                       # Number of squashed instructions skipped in execute
system.switch_cpus_1.iew.exec_swp                   0                       # number of swp insts executed
system.switch_cpus_1.iew.exec_nop              186050                       # number of nop insts executed
system.switch_cpus_1.iew.exec_refs          114951280                       # number of memory reference insts executed
system.switch_cpus_1.iew.exec_branches        1994198                       # Number of branches executed
system.switch_cpus_1.iew.exec_stores         10720932                       # Number of stores executed
system.switch_cpus_1.iew.exec_rate           0.443856                       # Inst execution rate
system.switch_cpus_1.iew.wb_sent            216532942                       # cumulative count of insts sent to commit
system.switch_cpus_1.iew.wb_count           215443944                       # cumulative count of insts written-back
system.switch_cpus_1.iew.wb_producers       142994218                       # num instructions producing a value
system.switch_cpus_1.iew.wb_consumers       149880501                       # num instructions consuming a value
system.switch_cpus_1.iew.wb_rate             0.418249                       # insts written-back per cycle
system.switch_cpus_1.iew.wb_fanout           0.954055                       # average fanout of values written-back
system.switch_cpus_1.commit.commitSquashedInsts     22581557                       # The number of squashed insts skipped by commit
system.switch_cpus_1.commit.branchMispredicts         4268                       # The number of times a branch was mispredicted
system.switch_cpus_1.commit.committed_per_cycle::samples    512096946                       # Number of insts commited each cycle
system.switch_cpus_1.commit.committed_per_cycle::mean     0.390913                       # Number of insts commited each cycle
system.switch_cpus_1.commit.committed_per_cycle::stdev     1.566657                       # Number of insts commited each cycle
system.switch_cpus_1.commit.committed_per_cycle::underflows            0      0.00%      0.00% # Number of insts commited each cycle
system.switch_cpus_1.commit.committed_per_cycle::0    468950279     91.57%     91.57% # Number of insts commited each cycle
system.switch_cpus_1.commit.committed_per_cycle::1     12514829      2.44%     94.02% # Number of insts commited each cycle
system.switch_cpus_1.commit.committed_per_cycle::2      4329667      0.85%     94.86% # Number of insts commited each cycle
system.switch_cpus_1.commit.committed_per_cycle::3      2641949      0.52%     95.38% # Number of insts commited each cycle
system.switch_cpus_1.commit.committed_per_cycle::4      2266815      0.44%     95.82% # Number of insts commited each cycle
system.switch_cpus_1.commit.committed_per_cycle::5      1614637      0.32%     96.14% # Number of insts commited each cycle
system.switch_cpus_1.commit.committed_per_cycle::6      1671037      0.33%     96.46% # Number of insts commited each cycle
system.switch_cpus_1.commit.committed_per_cycle::7       943026      0.18%     96.65% # Number of insts commited each cycle
system.switch_cpus_1.commit.committed_per_cycle::8     17164707      3.35%    100.00% # Number of insts commited each cycle
system.switch_cpus_1.commit.committed_per_cycle::overflows            0      0.00%    100.00% # Number of insts commited each cycle
system.switch_cpus_1.commit.committed_per_cycle::min_value            0                       # Number of insts commited each cycle
system.switch_cpus_1.commit.committed_per_cycle::max_value            8                       # Number of insts commited each cycle
system.switch_cpus_1.commit.committed_per_cycle::total    512096946                       # Number of insts commited each cycle
system.switch_cpus_1.commit.committedInsts    200185515                       # Number of instructions committed
system.switch_cpus_1.commit.committedOps    200185515                       # Number of ops (including micro ops) committed
system.switch_cpus_1.commit.swp_count               0                       # Number of s/w prefetches committed
system.switch_cpus_1.commit.refs             94008030                       # Number of memory references committed
system.switch_cpus_1.commit.loads            83415586                       # Number of loads committed
system.switch_cpus_1.commit.membars                 0                       # Number of memory barriers committed
system.switch_cpus_1.commit.branches          1780705                       # Number of branches committed
system.switch_cpus_1.commit.fp_insts        133556284                       # Number of committed floating point instructions.
system.switch_cpus_1.commit.int_insts       133992906                       # Number of committed integer instructions.
system.switch_cpus_1.commit.function_calls            0                       # Number of function calls committed.
system.switch_cpus_1.commit.op_class_0::No_OpClass       185513      0.09%      0.09% # Class of committed instruction
system.switch_cpus_1.commit.op_class_0::IntAlu     39964775     19.96%     20.06% # Class of committed instruction
system.switch_cpus_1.commit.op_class_0::IntMult        96303      0.05%     20.10% # Class of committed instruction
system.switch_cpus_1.commit.op_class_0::IntDiv            0      0.00%     20.10% # Class of committed instruction
system.switch_cpus_1.commit.op_class_0::FloatAdd     26372358     13.17%     33.28% # Class of committed instruction
system.switch_cpus_1.commit.op_class_0::FloatCmp            0      0.00%     33.28% # Class of committed instruction
system.switch_cpus_1.commit.op_class_0::FloatCvt            0      0.00%     33.28% # Class of committed instruction
system.switch_cpus_1.commit.op_class_0::FloatMult     39558536     19.76%     53.04% # Class of committed instruction
system.switch_cpus_1.commit.op_class_0::FloatMultAcc            0      0.00%     53.04% # Class of committed instruction
system.switch_cpus_1.commit.op_class_0::FloatDiv            0      0.00%     53.04% # Class of committed instruction
system.switch_cpus_1.commit.op_class_0::FloatMisc            0      0.00%     53.04% # Class of committed instruction
system.switch_cpus_1.commit.op_class_0::FloatSqrt            0      0.00%     53.04% # Class of committed instruction
system.switch_cpus_1.commit.op_class_0::SimdAdd            0      0.00%     53.04% # Class of committed instruction
system.switch_cpus_1.commit.op_class_0::SimdAddAcc            0      0.00%     53.04% # Class of committed instruction
system.switch_cpus_1.commit.op_class_0::SimdAlu            0      0.00%     53.04% # Class of committed instruction
system.switch_cpus_1.commit.op_class_0::SimdCmp            0      0.00%     53.04% # Class of committed instruction
system.switch_cpus_1.commit.op_class_0::SimdCvt            0      0.00%     53.04% # Class of committed instruction
system.switch_cpus_1.commit.op_class_0::SimdMisc            0      0.00%     53.04% # Class of committed instruction
system.switch_cpus_1.commit.op_class_0::SimdMult            0      0.00%     53.04% # Class of committed instruction
system.switch_cpus_1.commit.op_class_0::SimdMultAcc            0      0.00%     53.04% # Class of committed instruction
system.switch_cpus_1.commit.op_class_0::SimdShift            0      0.00%     53.04% # Class of committed instruction
system.switch_cpus_1.commit.op_class_0::SimdShiftAcc            0      0.00%     53.04% # Class of committed instruction
system.switch_cpus_1.commit.op_class_0::SimdSqrt            0      0.00%     53.04% # Class of committed instruction
system.switch_cpus_1.commit.op_class_0::SimdFloatAdd            0      0.00%     53.04% # Class of committed instruction
system.switch_cpus_1.commit.op_class_0::SimdFloatAlu            0      0.00%     53.04% # Class of committed instruction
system.switch_cpus_1.commit.op_class_0::SimdFloatCmp            0      0.00%     53.04% # Class of committed instruction
system.switch_cpus_1.commit.op_class_0::SimdFloatCvt            0      0.00%     53.04% # Class of committed instruction
system.switch_cpus_1.commit.op_class_0::SimdFloatDiv            0      0.00%     53.04% # Class of committed instruction
system.switch_cpus_1.commit.op_class_0::SimdFloatMisc            0      0.00%     53.04% # Class of committed instruction
system.switch_cpus_1.commit.op_class_0::SimdFloatMult            0      0.00%     53.04% # Class of committed instruction
system.switch_cpus_1.commit.op_class_0::SimdFloatMultAcc            0      0.00%     53.04% # Class of committed instruction
system.switch_cpus_1.commit.op_class_0::SimdFloatSqrt            0      0.00%     53.04% # Class of committed instruction
system.switch_cpus_1.commit.op_class_0::MemRead     24580982     12.28%     65.32% # Class of committed instruction
system.switch_cpus_1.commit.op_class_0::MemWrite      1801658      0.90%     66.22% # Class of committed instruction
system.switch_cpus_1.commit.op_class_0::FloatMemRead     58834604     29.39%     95.61% # Class of committed instruction
system.switch_cpus_1.commit.op_class_0::FloatMemWrite      8790786      4.39%    100.00% # Class of committed instruction
system.switch_cpus_1.commit.op_class_0::IprAccess            0      0.00%    100.00% # Class of committed instruction
system.switch_cpus_1.commit.op_class_0::InstPrefetch            0      0.00%    100.00% # Class of committed instruction
system.switch_cpus_1.commit.op_class_0::total    200185515                       # Class of committed instruction
system.switch_cpus_1.commit.bw_lim_events     17164707                       # number cycles where commit BW limit reached
system.switch_cpus_1.rob.rob_reads          713770438                       # The number of ROB reads
system.switch_cpus_1.rob.rob_writes         448492985                       # The number of ROB writes
system.switch_cpus_1.timesIdled                   384                       # Number of times that the entire CPU went into an idle state and unscheduled itself
system.switch_cpus_1.idleCycles                 53749                       # Total number of cycles that the CPU has spent unscheduled due to idling
system.switch_cpus_1.committedInsts         200000002                       # Number of Instructions Simulated
system.switch_cpus_1.committedOps           200000002                       # Number of Ops (including micro ops) Simulated
system.switch_cpus_1.cpi                     2.575547                       # CPI: Cycles Per Instruction
system.switch_cpus_1.cpi_total               2.575547                       # CPI: Total CPI of All Threads
system.switch_cpus_1.ipc                     0.388267                       # IPC: Instructions Per Cycle
system.switch_cpus_1.ipc_total               0.388267                       # IPC: Total IPC of All Threads
system.switch_cpus_1.int_regfile_reads      181522732                       # number of integer regfile reads
system.switch_cpus_1.int_regfile_writes      69119854                       # number of integer regfile writes
system.switch_cpus_1.fp_regfile_reads       147037099                       # number of floating regfile reads
system.switch_cpus_1.fp_regfile_writes      133637810                       # number of floating regfile writes
system.tol3bus.snoop_filter.tot_requests     39183926                       # Total number of requests made to the snoop filter.
system.tol3bus.snoop_filter.hit_single_requests     19589632                       # Number of requests hitting in the snoop filter with a single holder of the requested data.
system.tol3bus.snoop_filter.hit_multi_requests            0                       # Number of requests hitting in the snoop filter with multiple (>1) holders of the requested data.
system.tol3bus.snoop_filter.tot_snoops           4177                       # Total number of snoops made to the snoop filter.
system.tol3bus.snoop_filter.hit_single_snoops         4177                       # Number of snoops hitting in the snoop filter with a single holder of the requested data.
system.tol3bus.snoop_filter.hit_multi_snoops            0                       # Number of snoops hitting in the snoop filter with multiple (>1) holders of the requested data.
system.tol3bus.pwrStateResidencyTicks::UNDEFINED 146424782415231                       # Cumulative time (in ticks) in various power states
system.tol3bus.trans_dist::ReadResp          19456440                       # Transaction distribution
system.tol3bus.trans_dist::WritebackDirty     17799193                       # Transaction distribution
system.tol3bus.trans_dist::CleanEvict        18122867                       # Transaction distribution
system.tol3bus.trans_dist::UpgradeReq               5                       # Transaction distribution
system.tol3bus.trans_dist::UpgradeResp              5                       # Transaction distribution
system.tol3bus.trans_dist::ReadExReq           137853                       # Transaction distribution
system.tol3bus.trans_dist::ReadExResp          137853                       # Transaction distribution
system.tol3bus.trans_dist::ReadSharedReq     19456441                       # Transaction distribution
system.tol3bus.pkt_count_system.cpu.l2.mem_side::system.l3.cpu_side     58778224                       # Packet count per connected master and slave (bytes)
system.tol3bus.pkt_size_system.cpu.l2.mem_side::system.l3.cpu_side   1832311680                       # Cumulative packet size per connected master and slave (bytes)
system.tol3bus.snoops                        16332433                       # Total snoops (count)
system.tol3bus.snoopTraffic                 560871424                       # Total snoop traffic (bytes)
system.tol3bus.snoop_fanout::samples         35926732                       # Request fanout histogram
system.tol3bus.snoop_fanout::mean            0.000116                       # Request fanout histogram
system.tol3bus.snoop_fanout::stdev           0.010782                       # Request fanout histogram
system.tol3bus.snoop_fanout::underflows             0      0.00%      0.00% # Request fanout histogram
system.tol3bus.snoop_fanout::0               35922555     99.99%     99.99% # Request fanout histogram
system.tol3bus.snoop_fanout::1                   4177      0.01%    100.00% # Request fanout histogram
system.tol3bus.snoop_fanout::overflows              0      0.00%    100.00% # Request fanout histogram
system.tol3bus.snoop_fanout::min_value              0                       # Request fanout histogram
system.tol3bus.snoop_fanout::max_value              1                       # Request fanout histogram
system.tol3bus.snoop_fanout::total           35926732                       # Request fanout histogram
system.tol3bus.reqLayer0.occupancy        16057094499                       # Layer occupancy (ticks)
system.tol3bus.reqLayer0.utilization              0.5                       # Layer utilization (%)
system.tol3bus.respLayer0.occupancy       13049800803                       # Layer occupancy (ticks)
system.tol3bus.respLayer0.utilization             0.4                       # Layer utilization (%)

---------- End Simulation Statistics   ----------
