
---------- Begin Simulation Statistics ----------
sim_seconds                                  1.278141                       # Number of seconds simulated
sim_ticks                                1278140593320                       # Number of ticks simulated
final_tick                               118512837025506                       # Number of ticks from beginning of simulation (restored from checkpoints and never reset)
sim_freq                                 1000000000000                       # Frequency of simulated ticks
host_inst_rate                                 617882                       # Simulator instruction rate (inst/s)
host_op_rate                                   617882                       # Simulator op (including micro ops) rate (op/s)
host_tick_rate                              658117016                       # Simulator tick rate (ticks/s)
host_mem_usage                                2588588                       # Number of bytes of host memory used
host_seconds                                  1942.12                       # Real time elapsed on the host
sim_insts                                  1200000007                       # Number of instructions simulated
sim_ops                                    1200000007                       # Number of ops (including micro ops) simulated
system.voltage_domain.voltage                       1                       # Voltage in Volts
system.clk_domain.clock                          1000                       # Clock period in ticks
system.mem_ctrls0.pwrStateResidencyTicks::UNDEFINED 118512837025506                       # Cumulative time (in ticks) in various power states
system.mem_ctrls0.bytes_read::cpu.inst             64                       # Number of bytes read from this memory
system.mem_ctrls0.bytes_read::switch_cpus.inst        21888                       # Number of bytes read from this memory
system.mem_ctrls0.bytes_read::switch_cpus.data    116292416                       # Number of bytes read from this memory
system.mem_ctrls0.bytes_read::switch_cpus_1.inst          384                       # Number of bytes read from this memory
system.mem_ctrls0.bytes_read::switch_cpus_1.data     22128384                       # Number of bytes read from this memory
system.mem_ctrls0.bytes_read::total         138443136                       # Number of bytes read from this memory
system.mem_ctrls0.bytes_inst_read::cpu.inst           64                       # Number of instructions bytes read from this memory
system.mem_ctrls0.bytes_inst_read::switch_cpus.inst        21888                       # Number of instructions bytes read from this memory
system.mem_ctrls0.bytes_inst_read::switch_cpus_1.inst          384                       # Number of instructions bytes read from this memory
system.mem_ctrls0.bytes_inst_read::total        22336                       # Number of instructions bytes read from this memory
system.mem_ctrls0.bytes_written::writebacks     56018176                       # Number of bytes written to this memory
system.mem_ctrls0.bytes_written::total       56018176                       # Number of bytes written to this memory
system.mem_ctrls0.num_reads::cpu.inst               1                       # Number of read requests responded to by this memory
system.mem_ctrls0.num_reads::switch_cpus.inst          342                       # Number of read requests responded to by this memory
system.mem_ctrls0.num_reads::switch_cpus.data      1817069                       # Number of read requests responded to by this memory
system.mem_ctrls0.num_reads::switch_cpus_1.inst            6                       # Number of read requests responded to by this memory
system.mem_ctrls0.num_reads::switch_cpus_1.data       345756                       # Number of read requests responded to by this memory
system.mem_ctrls0.num_reads::total            2163174                       # Number of read requests responded to by this memory
system.mem_ctrls0.num_writes::writebacks       875284                       # Number of write requests responded to by this memory
system.mem_ctrls0.num_writes::total            875284                       # Number of write requests responded to by this memory
system.mem_ctrls0.bw_read::cpu.inst                50                       # Total read bandwidth from this memory (bytes/s)
system.mem_ctrls0.bw_read::switch_cpus.inst        17125                       # Total read bandwidth from this memory (bytes/s)
system.mem_ctrls0.bw_read::switch_cpus.data     90985621                       # Total read bandwidth from this memory (bytes/s)
system.mem_ctrls0.bw_read::switch_cpus_1.inst          300                       # Total read bandwidth from this memory (bytes/s)
system.mem_ctrls0.bw_read::switch_cpus_1.data     17312950                       # Total read bandwidth from this memory (bytes/s)
system.mem_ctrls0.bw_read::total            108316047                       # Total read bandwidth from this memory (bytes/s)
system.mem_ctrls0.bw_inst_read::cpu.inst           50                       # Instruction read bandwidth from this memory (bytes/s)
system.mem_ctrls0.bw_inst_read::switch_cpus.inst        17125                       # Instruction read bandwidth from this memory (bytes/s)
system.mem_ctrls0.bw_inst_read::switch_cpus_1.inst          300                       # Instruction read bandwidth from this memory (bytes/s)
system.mem_ctrls0.bw_inst_read::total           17475                       # Instruction read bandwidth from this memory (bytes/s)
system.mem_ctrls0.bw_write::writebacks       43827867                       # Write bandwidth from this memory (bytes/s)
system.mem_ctrls0.bw_write::total            43827867                       # Write bandwidth from this memory (bytes/s)
system.mem_ctrls0.bw_total::writebacks       43827867                       # Total bandwidth to/from this memory (bytes/s)
system.mem_ctrls0.bw_total::cpu.inst               50                       # Total bandwidth to/from this memory (bytes/s)
system.mem_ctrls0.bw_total::switch_cpus.inst        17125                       # Total bandwidth to/from this memory (bytes/s)
system.mem_ctrls0.bw_total::switch_cpus.data     90985621                       # Total bandwidth to/from this memory (bytes/s)
system.mem_ctrls0.bw_total::switch_cpus_1.inst          300                       # Total bandwidth to/from this memory (bytes/s)
system.mem_ctrls0.bw_total::switch_cpus_1.data     17312950                       # Total bandwidth to/from this memory (bytes/s)
system.mem_ctrls0.bw_total::total           152143914                       # Total bandwidth to/from this memory (bytes/s)
system.mem_ctrls0.readReqs                    2163174                       # Number of read requests accepted
system.mem_ctrls0.writeReqs                    875284                       # Number of write requests accepted
system.mem_ctrls0.readBursts                  2163174                       # Number of DRAM read bursts, including those serviced by the write queue
system.mem_ctrls0.writeBursts                  875284                       # Number of DRAM write bursts, including those merged in the write queue
system.mem_ctrls0.bytesReadDRAM             138440512                       # Total number of bytes read from DRAM
system.mem_ctrls0.bytesReadWrQ                   2624                       # Total number of bytes read from write queue
system.mem_ctrls0.bytesWritten               56016320                       # Total number of bytes written to DRAM
system.mem_ctrls0.bytesReadSys              138443136                       # Total read bytes from the system interface side
system.mem_ctrls0.bytesWrittenSys            56018176                       # Total written bytes from the system interface side
system.mem_ctrls0.servicedByWrQ                    41                       # Number of DRAM read bursts serviced by the write queue
system.mem_ctrls0.mergedWrBursts                    0                       # Number of DRAM write bursts merged with an existing one
system.mem_ctrls0.neitherReadNorWriteReqs            0                       # Number of requests that are neither read nor write
system.mem_ctrls0.perBankRdBursts::0           134699                       # Per bank write bursts
system.mem_ctrls0.perBankRdBursts::1           135119                       # Per bank write bursts
system.mem_ctrls0.perBankRdBursts::2           135730                       # Per bank write bursts
system.mem_ctrls0.perBankRdBursts::3           135180                       # Per bank write bursts
system.mem_ctrls0.perBankRdBursts::4           135858                       # Per bank write bursts
system.mem_ctrls0.perBankRdBursts::5           135269                       # Per bank write bursts
system.mem_ctrls0.perBankRdBursts::6           135846                       # Per bank write bursts
system.mem_ctrls0.perBankRdBursts::7           134789                       # Per bank write bursts
system.mem_ctrls0.perBankRdBursts::8           135375                       # Per bank write bursts
system.mem_ctrls0.perBankRdBursts::9           135422                       # Per bank write bursts
system.mem_ctrls0.perBankRdBursts::10          135003                       # Per bank write bursts
system.mem_ctrls0.perBankRdBursts::11          135183                       # Per bank write bursts
system.mem_ctrls0.perBankRdBursts::12          135239                       # Per bank write bursts
system.mem_ctrls0.perBankRdBursts::13          134392                       # Per bank write bursts
system.mem_ctrls0.perBankRdBursts::14          134865                       # Per bank write bursts
system.mem_ctrls0.perBankRdBursts::15          135164                       # Per bank write bursts
system.mem_ctrls0.perBankWrBursts::0            54687                       # Per bank write bursts
system.mem_ctrls0.perBankWrBursts::1            54432                       # Per bank write bursts
system.mem_ctrls0.perBankWrBursts::2            54743                       # Per bank write bursts
system.mem_ctrls0.perBankWrBursts::3            54712                       # Per bank write bursts
system.mem_ctrls0.perBankWrBursts::4            54556                       # Per bank write bursts
system.mem_ctrls0.perBankWrBursts::5            54622                       # Per bank write bursts
system.mem_ctrls0.perBankWrBursts::6            55357                       # Per bank write bursts
system.mem_ctrls0.perBankWrBursts::7            54689                       # Per bank write bursts
system.mem_ctrls0.perBankWrBursts::8            54925                       # Per bank write bursts
system.mem_ctrls0.perBankWrBursts::9            54874                       # Per bank write bursts
system.mem_ctrls0.perBankWrBursts::10           54737                       # Per bank write bursts
system.mem_ctrls0.perBankWrBursts::11           54595                       # Per bank write bursts
system.mem_ctrls0.perBankWrBursts::12           54815                       # Per bank write bursts
system.mem_ctrls0.perBankWrBursts::13           54580                       # Per bank write bursts
system.mem_ctrls0.perBankWrBursts::14           54391                       # Per bank write bursts
system.mem_ctrls0.perBankWrBursts::15           54540                       # Per bank write bursts
system.mem_ctrls0.numRdRetry                        0                       # Number of times read queue was full causing retry
system.mem_ctrls0.numWrRetry                        0                       # Number of times write queue was full causing retry
system.mem_ctrls0.totGap                 1278140260986                       # Total gap between requests
system.mem_ctrls0.readPktSize::0                    0                       # Read request sizes (log2)
system.mem_ctrls0.readPktSize::1                    0                       # Read request sizes (log2)
system.mem_ctrls0.readPktSize::2                    0                       # Read request sizes (log2)
system.mem_ctrls0.readPktSize::3                    0                       # Read request sizes (log2)
system.mem_ctrls0.readPktSize::4                    0                       # Read request sizes (log2)
system.mem_ctrls0.readPktSize::5                    0                       # Read request sizes (log2)
system.mem_ctrls0.readPktSize::6              2163174                       # Read request sizes (log2)
system.mem_ctrls0.writePktSize::0                   0                       # Write request sizes (log2)
system.mem_ctrls0.writePktSize::1                   0                       # Write request sizes (log2)
system.mem_ctrls0.writePktSize::2                   0                       # Write request sizes (log2)
system.mem_ctrls0.writePktSize::3                   0                       # Write request sizes (log2)
system.mem_ctrls0.writePktSize::4                   0                       # Write request sizes (log2)
system.mem_ctrls0.writePktSize::5                   0                       # Write request sizes (log2)
system.mem_ctrls0.writePktSize::6              875284                       # Write request sizes (log2)
system.mem_ctrls0.rdQLenPdf::0                2070174                       # What read queue length does an incoming req see
system.mem_ctrls0.rdQLenPdf::1                  77162                       # What read queue length does an incoming req see
system.mem_ctrls0.rdQLenPdf::2                  14065                       # What read queue length does an incoming req see
system.mem_ctrls0.rdQLenPdf::3                   1732                       # What read queue length does an incoming req see
system.mem_ctrls0.rdQLenPdf::4                      0                       # What read queue length does an incoming req see
system.mem_ctrls0.rdQLenPdf::5                      0                       # What read queue length does an incoming req see
system.mem_ctrls0.rdQLenPdf::6                      0                       # What read queue length does an incoming req see
system.mem_ctrls0.rdQLenPdf::7                      0                       # What read queue length does an incoming req see
system.mem_ctrls0.rdQLenPdf::8                      0                       # What read queue length does an incoming req see
system.mem_ctrls0.rdQLenPdf::9                      0                       # What read queue length does an incoming req see
system.mem_ctrls0.rdQLenPdf::10                     0                       # What read queue length does an incoming req see
system.mem_ctrls0.rdQLenPdf::11                     0                       # What read queue length does an incoming req see
system.mem_ctrls0.rdQLenPdf::12                     0                       # What read queue length does an incoming req see
system.mem_ctrls0.rdQLenPdf::13                     0                       # What read queue length does an incoming req see
system.mem_ctrls0.rdQLenPdf::14                     0                       # What read queue length does an incoming req see
system.mem_ctrls0.rdQLenPdf::15                     0                       # What read queue length does an incoming req see
system.mem_ctrls0.rdQLenPdf::16                     0                       # What read queue length does an incoming req see
system.mem_ctrls0.rdQLenPdf::17                     0                       # What read queue length does an incoming req see
system.mem_ctrls0.rdQLenPdf::18                     0                       # What read queue length does an incoming req see
system.mem_ctrls0.rdQLenPdf::19                     0                       # What read queue length does an incoming req see
system.mem_ctrls0.rdQLenPdf::20                     0                       # What read queue length does an incoming req see
system.mem_ctrls0.rdQLenPdf::21                     0                       # What read queue length does an incoming req see
system.mem_ctrls0.rdQLenPdf::22                     0                       # What read queue length does an incoming req see
system.mem_ctrls0.rdQLenPdf::23                     0                       # What read queue length does an incoming req see
system.mem_ctrls0.rdQLenPdf::24                     0                       # What read queue length does an incoming req see
system.mem_ctrls0.rdQLenPdf::25                     0                       # What read queue length does an incoming req see
system.mem_ctrls0.rdQLenPdf::26                     0                       # What read queue length does an incoming req see
system.mem_ctrls0.rdQLenPdf::27                     0                       # What read queue length does an incoming req see
system.mem_ctrls0.rdQLenPdf::28                     0                       # What read queue length does an incoming req see
system.mem_ctrls0.rdQLenPdf::29                     0                       # What read queue length does an incoming req see
system.mem_ctrls0.rdQLenPdf::30                     0                       # What read queue length does an incoming req see
system.mem_ctrls0.rdQLenPdf::31                     0                       # What read queue length does an incoming req see
system.mem_ctrls0.wrQLenPdf::0                      2                       # What write queue length does an incoming req see
system.mem_ctrls0.wrQLenPdf::1                      2                       # What write queue length does an incoming req see
system.mem_ctrls0.wrQLenPdf::2                      2                       # What write queue length does an incoming req see
system.mem_ctrls0.wrQLenPdf::3                      2                       # What write queue length does an incoming req see
system.mem_ctrls0.wrQLenPdf::4                      2                       # What write queue length does an incoming req see
system.mem_ctrls0.wrQLenPdf::5                      2                       # What write queue length does an incoming req see
system.mem_ctrls0.wrQLenPdf::6                      2                       # What write queue length does an incoming req see
system.mem_ctrls0.wrQLenPdf::7                      2                       # What write queue length does an incoming req see
system.mem_ctrls0.wrQLenPdf::8                      2                       # What write queue length does an incoming req see
system.mem_ctrls0.wrQLenPdf::9                      2                       # What write queue length does an incoming req see
system.mem_ctrls0.wrQLenPdf::10                     2                       # What write queue length does an incoming req see
system.mem_ctrls0.wrQLenPdf::11                     2                       # What write queue length does an incoming req see
system.mem_ctrls0.wrQLenPdf::12                     2                       # What write queue length does an incoming req see
system.mem_ctrls0.wrQLenPdf::13                     2                       # What write queue length does an incoming req see
system.mem_ctrls0.wrQLenPdf::14                     2                       # What write queue length does an incoming req see
system.mem_ctrls0.wrQLenPdf::15                 34572                       # What write queue length does an incoming req see
system.mem_ctrls0.wrQLenPdf::16                 35490                       # What write queue length does an incoming req see
system.mem_ctrls0.wrQLenPdf::17                 49100                       # What write queue length does an incoming req see
system.mem_ctrls0.wrQLenPdf::18                 50258                       # What write queue length does an incoming req see
system.mem_ctrls0.wrQLenPdf::19                 50314                       # What write queue length does an incoming req see
system.mem_ctrls0.wrQLenPdf::20                 50326                       # What write queue length does an incoming req see
system.mem_ctrls0.wrQLenPdf::21                 50319                       # What write queue length does an incoming req see
system.mem_ctrls0.wrQLenPdf::22                 50332                       # What write queue length does an incoming req see
system.mem_ctrls0.wrQLenPdf::23                 50345                       # What write queue length does an incoming req see
system.mem_ctrls0.wrQLenPdf::24                 50333                       # What write queue length does an incoming req see
system.mem_ctrls0.wrQLenPdf::25                 50301                       # What write queue length does an incoming req see
system.mem_ctrls0.wrQLenPdf::26                 50314                       # What write queue length does an incoming req see
system.mem_ctrls0.wrQLenPdf::27                 50448                       # What write queue length does an incoming req see
system.mem_ctrls0.wrQLenPdf::28                 50714                       # What write queue length does an incoming req see
system.mem_ctrls0.wrQLenPdf::29                 50899                       # What write queue length does an incoming req see
system.mem_ctrls0.wrQLenPdf::30                 50601                       # What write queue length does an incoming req see
system.mem_ctrls0.wrQLenPdf::31                 50307                       # What write queue length does an incoming req see
system.mem_ctrls0.wrQLenPdf::32                 50255                       # What write queue length does an incoming req see
system.mem_ctrls0.wrQLenPdf::33                    24                       # What write queue length does an incoming req see
system.mem_ctrls0.wrQLenPdf::34                     2                       # What write queue length does an incoming req see
system.mem_ctrls0.wrQLenPdf::35                     0                       # What write queue length does an incoming req see
system.mem_ctrls0.wrQLenPdf::36                     0                       # What write queue length does an incoming req see
system.mem_ctrls0.wrQLenPdf::37                     0                       # What write queue length does an incoming req see
system.mem_ctrls0.wrQLenPdf::38                     0                       # What write queue length does an incoming req see
system.mem_ctrls0.wrQLenPdf::39                     0                       # What write queue length does an incoming req see
system.mem_ctrls0.wrQLenPdf::40                     0                       # What write queue length does an incoming req see
system.mem_ctrls0.wrQLenPdf::41                     0                       # What write queue length does an incoming req see
system.mem_ctrls0.wrQLenPdf::42                     0                       # What write queue length does an incoming req see
system.mem_ctrls0.wrQLenPdf::43                     0                       # What write queue length does an incoming req see
system.mem_ctrls0.wrQLenPdf::44                     0                       # What write queue length does an incoming req see
system.mem_ctrls0.wrQLenPdf::45                     0                       # What write queue length does an incoming req see
system.mem_ctrls0.wrQLenPdf::46                     0                       # What write queue length does an incoming req see
system.mem_ctrls0.wrQLenPdf::47                     0                       # What write queue length does an incoming req see
system.mem_ctrls0.wrQLenPdf::48                     0                       # What write queue length does an incoming req see
system.mem_ctrls0.wrQLenPdf::49                     0                       # What write queue length does an incoming req see
system.mem_ctrls0.wrQLenPdf::50                     0                       # What write queue length does an incoming req see
system.mem_ctrls0.wrQLenPdf::51                     0                       # What write queue length does an incoming req see
system.mem_ctrls0.wrQLenPdf::52                     0                       # What write queue length does an incoming req see
system.mem_ctrls0.wrQLenPdf::53                     0                       # What write queue length does an incoming req see
system.mem_ctrls0.wrQLenPdf::54                     0                       # What write queue length does an incoming req see
system.mem_ctrls0.wrQLenPdf::55                     0                       # What write queue length does an incoming req see
system.mem_ctrls0.wrQLenPdf::56                     0                       # What write queue length does an incoming req see
system.mem_ctrls0.wrQLenPdf::57                     0                       # What write queue length does an incoming req see
system.mem_ctrls0.wrQLenPdf::58                     0                       # What write queue length does an incoming req see
system.mem_ctrls0.wrQLenPdf::59                     0                       # What write queue length does an incoming req see
system.mem_ctrls0.wrQLenPdf::60                     0                       # What write queue length does an incoming req see
system.mem_ctrls0.wrQLenPdf::61                     0                       # What write queue length does an incoming req see
system.mem_ctrls0.wrQLenPdf::62                     0                       # What write queue length does an incoming req see
system.mem_ctrls0.wrQLenPdf::63                     0                       # What write queue length does an incoming req see
system.mem_ctrls0.bytesPerActivate::samples      1939153                       # Bytes accessed per row activation
system.mem_ctrls0.bytesPerActivate::mean   100.278833                       # Bytes accessed per row activation
system.mem_ctrls0.bytesPerActivate::gmean    81.933193                       # Bytes accessed per row activation
system.mem_ctrls0.bytesPerActivate::stdev    93.395390                       # Bytes accessed per row activation
system.mem_ctrls0.bytesPerActivate::0-127      1523700     78.58%     78.58% # Bytes accessed per row activation
system.mem_ctrls0.bytesPerActivate::128-255       260489     13.43%     92.01% # Bytes accessed per row activation
system.mem_ctrls0.bytesPerActivate::256-383        72005      3.71%     95.72% # Bytes accessed per row activation
system.mem_ctrls0.bytesPerActivate::384-511        34403      1.77%     97.50% # Bytes accessed per row activation
system.mem_ctrls0.bytesPerActivate::512-639        47980      2.47%     99.97% # Bytes accessed per row activation
system.mem_ctrls0.bytesPerActivate::640-767          400      0.02%     99.99% # Bytes accessed per row activation
system.mem_ctrls0.bytesPerActivate::768-895           78      0.00%     99.99% # Bytes accessed per row activation
system.mem_ctrls0.bytesPerActivate::896-1023           39      0.00%    100.00% # Bytes accessed per row activation
system.mem_ctrls0.bytesPerActivate::1024-1151           59      0.00%    100.00% # Bytes accessed per row activation
system.mem_ctrls0.bytesPerActivate::total      1939153                       # Bytes accessed per row activation
system.mem_ctrls0.rdPerTurnAround::samples        50215                       # Reads before turning the bus around for writes
system.mem_ctrls0.rdPerTurnAround::mean     43.076790                       # Reads before turning the bus around for writes
system.mem_ctrls0.rdPerTurnAround::gmean    40.909168                       # Reads before turning the bus around for writes
system.mem_ctrls0.rdPerTurnAround::stdev   140.891810                       # Reads before turning the bus around for writes
system.mem_ctrls0.rdPerTurnAround::0-1023        50214    100.00%    100.00% # Reads before turning the bus around for writes
system.mem_ctrls0.rdPerTurnAround::30720-31743            1      0.00%    100.00% # Reads before turning the bus around for writes
system.mem_ctrls0.rdPerTurnAround::total        50215                       # Reads before turning the bus around for writes
system.mem_ctrls0.wrPerTurnAround::samples        50215                       # Writes before turning the bus around for reads
system.mem_ctrls0.wrPerTurnAround::mean     17.430150                       # Writes before turning the bus around for reads
system.mem_ctrls0.wrPerTurnAround::gmean    17.403488                       # Writes before turning the bus around for reads
system.mem_ctrls0.wrPerTurnAround::stdev     0.951347                       # Writes before turning the bus around for reads
system.mem_ctrls0.wrPerTurnAround::16           14754     29.38%     29.38% # Writes before turning the bus around for reads
system.mem_ctrls0.wrPerTurnAround::17             812      1.62%     31.00% # Writes before turning the bus around for reads
system.mem_ctrls0.wrPerTurnAround::18           33042     65.80%     96.80% # Writes before turning the bus around for reads
system.mem_ctrls0.wrPerTurnAround::19            1520      3.03%     99.83% # Writes before turning the bus around for reads
system.mem_ctrls0.wrPerTurnAround::20              77      0.15%     99.98% # Writes before turning the bus around for reads
system.mem_ctrls0.wrPerTurnAround::21               9      0.02%    100.00% # Writes before turning the bus around for reads
system.mem_ctrls0.wrPerTurnAround::22               1      0.00%    100.00% # Writes before turning the bus around for reads
system.mem_ctrls0.wrPerTurnAround::total        50215                       # Writes before turning the bus around for reads
system.mem_ctrls0.totQLat                 58069942738                       # Total ticks spent queuing
system.mem_ctrls0.totMemAccLat            98628686488                       # Total ticks spent from burst creation until serviced by the DRAM
system.mem_ctrls0.totBusLat               10815665000                       # Total ticks spent in databus transfers
system.mem_ctrls0.avgQLat                    26845.29                       # Average queueing delay per DRAM burst
system.mem_ctrls0.avgBusLat                   5000.00                       # Average bus latency per DRAM burst
system.mem_ctrls0.avgMemAccLat               45595.29                       # Average memory access latency per DRAM burst
system.mem_ctrls0.avgRdBW                      108.31                       # Average DRAM read bandwidth in MiByte/s
system.mem_ctrls0.avgWrBW                       43.83                       # Average achieved write bandwidth in MiByte/s
system.mem_ctrls0.avgRdBWSys                   108.32                       # Average system read bandwidth in MiByte/s
system.mem_ctrls0.avgWrBWSys                    43.83                       # Average system write bandwidth in MiByte/s
system.mem_ctrls0.peakBW                     12800.00                       # Theoretical peak bandwidth in MiByte/s
system.mem_ctrls0.busUtil                        1.19                       # Data bus utilization in percentage
system.mem_ctrls0.busUtilRead                    0.85                       # Data bus utilization in percentage for reads
system.mem_ctrls0.busUtilWrite                   0.34                       # Data bus utilization in percentage for writes
system.mem_ctrls0.avgRdQLen                      1.02                       # Average read queue length when enqueuing
system.mem_ctrls0.avgWrQLen                     24.34                       # Average write queue length when enqueuing
system.mem_ctrls0.readRowHits                  884921                       # Number of row buffer hits during reads
system.mem_ctrls0.writeRowHits                 214302                       # Number of row buffer hits during writes
system.mem_ctrls0.readRowHitRate                40.91                       # Row buffer hit rate for reads
system.mem_ctrls0.writeRowHitRate               24.48                       # Row buffer hit rate for writes
system.mem_ctrls0.avgGap                    420654.25                       # Average gap between requests
system.mem_ctrls0.pageHitRate                   36.18                       # Row buffer hit rate, read and write combined
system.mem_ctrls0_0.actEnergy              6917403360                       # Energy for activate commands per rank (pJ)
system.mem_ctrls0_0.preEnergy              3676668105                       # Energy for precharge commands per rank (pJ)
system.mem_ctrls0_0.readEnergy             7728978600                       # Energy for read commands per rank (pJ)
system.mem_ctrls0_0.writeEnergy            2285305560                       # Energy for write commands per rank (pJ)
system.mem_ctrls0_0.refreshEnergy        100567396800.000015                       # Energy for refresh commands per rank (pJ)
system.mem_ctrls0_0.actBackEnergy         60890122320                       # Energy for active background per rank (pJ)
system.mem_ctrls0_0.preBackEnergy          3389436480                       # Energy for precharge background per rank (pJ)
system.mem_ctrls0_0.actPowerDownEnergy   359900687550                       # Energy for active power-down per rank (pJ)
system.mem_ctrls0_0.prePowerDownEnergy    93833021280                       # Energy for precharge power-down per rank (pJ)
system.mem_ctrls0_0.selfRefreshEnergy     31991456865                       # Energy for self refresh per rank (pJ)
system.mem_ctrls0_0.totalEnergy          671197757970                       # Total energy per rank (pJ)
system.mem_ctrls0_0.averagePower           525.136087                       # Core power per rank (mW)
system.mem_ctrls0_0.totalIdleTime        1135735331075                       # Total Idle time Per DRAM Rank
system.mem_ctrls0_0.memoryStateTime::IDLE   4422053564                       # Time in different power states
system.mem_ctrls0_0.memoryStateTime::REF  42624234000                       # Time in different power states
system.mem_ctrls0_0.memoryStateTime::SREF 102131786403                       # Time in different power states
system.mem_ctrls0_0.memoryStateTime::PRE_PDN 244355456950                       # Time in different power states
system.mem_ctrls0_0.memoryStateTime::ACT  95358564394                       # Time in different power states
system.mem_ctrls0_0.memoryStateTime::ACT_PDN 789248498009                       # Time in different power states
system.mem_ctrls0_1.actEnergy              6928234740                       # Energy for activate commands per rank (pJ)
system.mem_ctrls0_1.preEnergy              3682417530                       # Energy for precharge commands per rank (pJ)
system.mem_ctrls0_1.readEnergy             7715791020                       # Energy for read commands per rank (pJ)
system.mem_ctrls0_1.writeEnergy            2283525540                       # Energy for write commands per rank (pJ)
system.mem_ctrls0_1.refreshEnergy        100655290320.000015                       # Energy for refresh commands per rank (pJ)
system.mem_ctrls0_1.actBackEnergy         61280247420                       # Energy for active background per rank (pJ)
system.mem_ctrls0_1.preBackEnergy          3406129920                       # Energy for precharge background per rank (pJ)
system.mem_ctrls0_1.actPowerDownEnergy   359099346210                       # Energy for active power-down per rank (pJ)
system.mem_ctrls0_1.prePowerDownEnergy    93974024160                       # Energy for precharge power-down per rank (pJ)
system.mem_ctrls0_1.selfRefreshEnergy     32232335970                       # Energy for self refresh per rank (pJ)
system.mem_ctrls0_1.totalEnergy          671277448650                       # Total energy per rank (pJ)
system.mem_ctrls0_1.averagePower           525.198434                       # Core power per rank (mW)
system.mem_ctrls0_1.totalIdleTime        1134843154440                       # Total Idle time Per DRAM Rank
system.mem_ctrls0_1.memoryStateTime::IDLE   4467204100                       # Time in different power states
system.mem_ctrls0_1.memoryStateTime::REF  42662548000                       # Time in different power states
system.mem_ctrls0_1.memoryStateTime::SREF 102616644894                       # Time in different power states
system.mem_ctrls0_1.memoryStateTime::PRE_PDN 244723377618                       # Time in different power states
system.mem_ctrls0_1.memoryStateTime::ACT  96167421681                       # Time in different power states
system.mem_ctrls0_1.memoryStateTime::ACT_PDN 787503397027                       # Time in different power states
system.mem_ctrls1.pwrStateResidencyTicks::UNDEFINED 118512837025506                       # Cumulative time (in ticks) in various power states
system.mem_ctrls1.bytes_read::cpu.inst             64                       # Number of bytes read from this memory
system.mem_ctrls1.bytes_read::switch_cpus.inst        22400                       # Number of bytes read from this memory
system.mem_ctrls1.bytes_read::switch_cpus.data    116256000                       # Number of bytes read from this memory
system.mem_ctrls1.bytes_read::switch_cpus_1.inst          320                       # Number of bytes read from this memory
system.mem_ctrls1.bytes_read::switch_cpus_1.data     22130304                       # Number of bytes read from this memory
system.mem_ctrls1.bytes_read::total         138409088                       # Number of bytes read from this memory
system.mem_ctrls1.bytes_inst_read::cpu.inst           64                       # Number of instructions bytes read from this memory
system.mem_ctrls1.bytes_inst_read::switch_cpus.inst        22400                       # Number of instructions bytes read from this memory
system.mem_ctrls1.bytes_inst_read::switch_cpus_1.inst          320                       # Number of instructions bytes read from this memory
system.mem_ctrls1.bytes_inst_read::total        22784                       # Number of instructions bytes read from this memory
system.mem_ctrls1.bytes_written::writebacks     56010752                       # Number of bytes written to this memory
system.mem_ctrls1.bytes_written::total       56010752                       # Number of bytes written to this memory
system.mem_ctrls1.num_reads::cpu.inst               1                       # Number of read requests responded to by this memory
system.mem_ctrls1.num_reads::switch_cpus.inst          350                       # Number of read requests responded to by this memory
system.mem_ctrls1.num_reads::switch_cpus.data      1816500                       # Number of read requests responded to by this memory
system.mem_ctrls1.num_reads::switch_cpus_1.inst            5                       # Number of read requests responded to by this memory
system.mem_ctrls1.num_reads::switch_cpus_1.data       345786                       # Number of read requests responded to by this memory
system.mem_ctrls1.num_reads::total            2162642                       # Number of read requests responded to by this memory
system.mem_ctrls1.num_writes::writebacks       875168                       # Number of write requests responded to by this memory
system.mem_ctrls1.num_writes::total            875168                       # Number of write requests responded to by this memory
system.mem_ctrls1.bw_read::cpu.inst                50                       # Total read bandwidth from this memory (bytes/s)
system.mem_ctrls1.bw_read::switch_cpus.inst        17525                       # Total read bandwidth from this memory (bytes/s)
system.mem_ctrls1.bw_read::switch_cpus.data     90957130                       # Total read bandwidth from this memory (bytes/s)
system.mem_ctrls1.bw_read::switch_cpus_1.inst          250                       # Total read bandwidth from this memory (bytes/s)
system.mem_ctrls1.bw_read::switch_cpus_1.data     17314452                       # Total read bandwidth from this memory (bytes/s)
system.mem_ctrls1.bw_read::total            108289408                       # Total read bandwidth from this memory (bytes/s)
system.mem_ctrls1.bw_inst_read::cpu.inst           50                       # Instruction read bandwidth from this memory (bytes/s)
system.mem_ctrls1.bw_inst_read::switch_cpus.inst        17525                       # Instruction read bandwidth from this memory (bytes/s)
system.mem_ctrls1.bw_inst_read::switch_cpus_1.inst          250                       # Instruction read bandwidth from this memory (bytes/s)
system.mem_ctrls1.bw_inst_read::total           17826                       # Instruction read bandwidth from this memory (bytes/s)
system.mem_ctrls1.bw_write::writebacks       43822059                       # Write bandwidth from this memory (bytes/s)
system.mem_ctrls1.bw_write::total            43822059                       # Write bandwidth from this memory (bytes/s)
system.mem_ctrls1.bw_total::writebacks       43822059                       # Total bandwidth to/from this memory (bytes/s)
system.mem_ctrls1.bw_total::cpu.inst               50                       # Total bandwidth to/from this memory (bytes/s)
system.mem_ctrls1.bw_total::switch_cpus.inst        17525                       # Total bandwidth to/from this memory (bytes/s)
system.mem_ctrls1.bw_total::switch_cpus.data     90957130                       # Total bandwidth to/from this memory (bytes/s)
system.mem_ctrls1.bw_total::switch_cpus_1.inst          250                       # Total bandwidth to/from this memory (bytes/s)
system.mem_ctrls1.bw_total::switch_cpus_1.data     17314452                       # Total bandwidth to/from this memory (bytes/s)
system.mem_ctrls1.bw_total::total           152111466                       # Total bandwidth to/from this memory (bytes/s)
system.mem_ctrls1.readReqs                    2162642                       # Number of read requests accepted
system.mem_ctrls1.writeReqs                    875168                       # Number of write requests accepted
system.mem_ctrls1.readBursts                  2162642                       # Number of DRAM read bursts, including those serviced by the write queue
system.mem_ctrls1.writeBursts                  875168                       # Number of DRAM write bursts, including those merged in the write queue
system.mem_ctrls1.bytesReadDRAM             138406912                       # Total number of bytes read from DRAM
system.mem_ctrls1.bytesReadWrQ                   2176                       # Total number of bytes read from write queue
system.mem_ctrls1.bytesWritten               56009216                       # Total number of bytes written to DRAM
system.mem_ctrls1.bytesReadSys              138409088                       # Total read bytes from the system interface side
system.mem_ctrls1.bytesWrittenSys            56010752                       # Total written bytes from the system interface side
system.mem_ctrls1.servicedByWrQ                    34                       # Number of DRAM read bursts serviced by the write queue
system.mem_ctrls1.mergedWrBursts                    0                       # Number of DRAM write bursts merged with an existing one
system.mem_ctrls1.neitherReadNorWriteReqs            0                       # Number of requests that are neither read nor write
system.mem_ctrls1.perBankRdBursts::0           134786                       # Per bank write bursts
system.mem_ctrls1.perBankRdBursts::1           135273                       # Per bank write bursts
system.mem_ctrls1.perBankRdBursts::2           135628                       # Per bank write bursts
system.mem_ctrls1.perBankRdBursts::3           135039                       # Per bank write bursts
system.mem_ctrls1.perBankRdBursts::4           135850                       # Per bank write bursts
system.mem_ctrls1.perBankRdBursts::5           135240                       # Per bank write bursts
system.mem_ctrls1.perBankRdBursts::6           135830                       # Per bank write bursts
system.mem_ctrls1.perBankRdBursts::7           134699                       # Per bank write bursts
system.mem_ctrls1.perBankRdBursts::8           135354                       # Per bank write bursts
system.mem_ctrls1.perBankRdBursts::9           135540                       # Per bank write bursts
system.mem_ctrls1.perBankRdBursts::10          134917                       # Per bank write bursts
system.mem_ctrls1.perBankRdBursts::11          135269                       # Per bank write bursts
system.mem_ctrls1.perBankRdBursts::12          134970                       # Per bank write bursts
system.mem_ctrls1.perBankRdBursts::13          134310                       # Per bank write bursts
system.mem_ctrls1.perBankRdBursts::14          134865                       # Per bank write bursts
system.mem_ctrls1.perBankRdBursts::15          135038                       # Per bank write bursts
system.mem_ctrls1.perBankWrBursts::0            54646                       # Per bank write bursts
system.mem_ctrls1.perBankWrBursts::1            54430                       # Per bank write bursts
system.mem_ctrls1.perBankWrBursts::2            54719                       # Per bank write bursts
system.mem_ctrls1.perBankWrBursts::3            54727                       # Per bank write bursts
system.mem_ctrls1.perBankWrBursts::4            54707                       # Per bank write bursts
system.mem_ctrls1.perBankWrBursts::5            54580                       # Per bank write bursts
system.mem_ctrls1.perBankWrBursts::6            55254                       # Per bank write bursts
system.mem_ctrls1.perBankWrBursts::7            54635                       # Per bank write bursts
system.mem_ctrls1.perBankWrBursts::8            54842                       # Per bank write bursts
system.mem_ctrls1.perBankWrBursts::9            55011                       # Per bank write bursts
system.mem_ctrls1.perBankWrBursts::10           54668                       # Per bank write bursts
system.mem_ctrls1.perBankWrBursts::11           54607                       # Per bank write bursts
system.mem_ctrls1.perBankWrBursts::12           54718                       # Per bank write bursts
system.mem_ctrls1.perBankWrBursts::13           54586                       # Per bank write bursts
system.mem_ctrls1.perBankWrBursts::14           54551                       # Per bank write bursts
system.mem_ctrls1.perBankWrBursts::15           54463                       # Per bank write bursts
system.mem_ctrls1.numRdRetry                        0                       # Number of times read queue was full causing retry
system.mem_ctrls1.numWrRetry                        0                       # Number of times write queue was full causing retry
system.mem_ctrls1.totGap                 1278140447133                       # Total gap between requests
system.mem_ctrls1.readPktSize::0                    0                       # Read request sizes (log2)
system.mem_ctrls1.readPktSize::1                    0                       # Read request sizes (log2)
system.mem_ctrls1.readPktSize::2                    0                       # Read request sizes (log2)
system.mem_ctrls1.readPktSize::3                    0                       # Read request sizes (log2)
system.mem_ctrls1.readPktSize::4                    0                       # Read request sizes (log2)
system.mem_ctrls1.readPktSize::5                    0                       # Read request sizes (log2)
system.mem_ctrls1.readPktSize::6              2162642                       # Read request sizes (log2)
system.mem_ctrls1.writePktSize::0                   0                       # Write request sizes (log2)
system.mem_ctrls1.writePktSize::1                   0                       # Write request sizes (log2)
system.mem_ctrls1.writePktSize::2                   0                       # Write request sizes (log2)
system.mem_ctrls1.writePktSize::3                   0                       # Write request sizes (log2)
system.mem_ctrls1.writePktSize::4                   0                       # Write request sizes (log2)
system.mem_ctrls1.writePktSize::5                   0                       # Write request sizes (log2)
system.mem_ctrls1.writePktSize::6              875168                       # Write request sizes (log2)
system.mem_ctrls1.rdQLenPdf::0                2070029                       # What read queue length does an incoming req see
system.mem_ctrls1.rdQLenPdf::1                  76980                       # What read queue length does an incoming req see
system.mem_ctrls1.rdQLenPdf::2                  13831                       # What read queue length does an incoming req see
system.mem_ctrls1.rdQLenPdf::3                   1768                       # What read queue length does an incoming req see
system.mem_ctrls1.rdQLenPdf::4                      0                       # What read queue length does an incoming req see
system.mem_ctrls1.rdQLenPdf::5                      0                       # What read queue length does an incoming req see
system.mem_ctrls1.rdQLenPdf::6                      0                       # What read queue length does an incoming req see
system.mem_ctrls1.rdQLenPdf::7                      0                       # What read queue length does an incoming req see
system.mem_ctrls1.rdQLenPdf::8                      0                       # What read queue length does an incoming req see
system.mem_ctrls1.rdQLenPdf::9                      0                       # What read queue length does an incoming req see
system.mem_ctrls1.rdQLenPdf::10                     0                       # What read queue length does an incoming req see
system.mem_ctrls1.rdQLenPdf::11                     0                       # What read queue length does an incoming req see
system.mem_ctrls1.rdQLenPdf::12                     0                       # What read queue length does an incoming req see
system.mem_ctrls1.rdQLenPdf::13                     0                       # What read queue length does an incoming req see
system.mem_ctrls1.rdQLenPdf::14                     0                       # What read queue length does an incoming req see
system.mem_ctrls1.rdQLenPdf::15                     0                       # What read queue length does an incoming req see
system.mem_ctrls1.rdQLenPdf::16                     0                       # What read queue length does an incoming req see
system.mem_ctrls1.rdQLenPdf::17                     0                       # What read queue length does an incoming req see
system.mem_ctrls1.rdQLenPdf::18                     0                       # What read queue length does an incoming req see
system.mem_ctrls1.rdQLenPdf::19                     0                       # What read queue length does an incoming req see
system.mem_ctrls1.rdQLenPdf::20                     0                       # What read queue length does an incoming req see
system.mem_ctrls1.rdQLenPdf::21                     0                       # What read queue length does an incoming req see
system.mem_ctrls1.rdQLenPdf::22                     0                       # What read queue length does an incoming req see
system.mem_ctrls1.rdQLenPdf::23                     0                       # What read queue length does an incoming req see
system.mem_ctrls1.rdQLenPdf::24                     0                       # What read queue length does an incoming req see
system.mem_ctrls1.rdQLenPdf::25                     0                       # What read queue length does an incoming req see
system.mem_ctrls1.rdQLenPdf::26                     0                       # What read queue length does an incoming req see
system.mem_ctrls1.rdQLenPdf::27                     0                       # What read queue length does an incoming req see
system.mem_ctrls1.rdQLenPdf::28                     0                       # What read queue length does an incoming req see
system.mem_ctrls1.rdQLenPdf::29                     0                       # What read queue length does an incoming req see
system.mem_ctrls1.rdQLenPdf::30                     0                       # What read queue length does an incoming req see
system.mem_ctrls1.rdQLenPdf::31                     0                       # What read queue length does an incoming req see
system.mem_ctrls1.wrQLenPdf::0                      2                       # What write queue length does an incoming req see
system.mem_ctrls1.wrQLenPdf::1                      2                       # What write queue length does an incoming req see
system.mem_ctrls1.wrQLenPdf::2                      2                       # What write queue length does an incoming req see
system.mem_ctrls1.wrQLenPdf::3                      2                       # What write queue length does an incoming req see
system.mem_ctrls1.wrQLenPdf::4                      2                       # What write queue length does an incoming req see
system.mem_ctrls1.wrQLenPdf::5                      2                       # What write queue length does an incoming req see
system.mem_ctrls1.wrQLenPdf::6                      2                       # What write queue length does an incoming req see
system.mem_ctrls1.wrQLenPdf::7                      2                       # What write queue length does an incoming req see
system.mem_ctrls1.wrQLenPdf::8                      2                       # What write queue length does an incoming req see
system.mem_ctrls1.wrQLenPdf::9                      2                       # What write queue length does an incoming req see
system.mem_ctrls1.wrQLenPdf::10                     2                       # What write queue length does an incoming req see
system.mem_ctrls1.wrQLenPdf::11                     2                       # What write queue length does an incoming req see
system.mem_ctrls1.wrQLenPdf::12                     2                       # What write queue length does an incoming req see
system.mem_ctrls1.wrQLenPdf::13                     2                       # What write queue length does an incoming req see
system.mem_ctrls1.wrQLenPdf::14                     2                       # What write queue length does an incoming req see
system.mem_ctrls1.wrQLenPdf::15                 34519                       # What write queue length does an incoming req see
system.mem_ctrls1.wrQLenPdf::16                 35413                       # What write queue length does an incoming req see
system.mem_ctrls1.wrQLenPdf::17                 49024                       # What write queue length does an incoming req see
system.mem_ctrls1.wrQLenPdf::18                 50209                       # What write queue length does an incoming req see
system.mem_ctrls1.wrQLenPdf::19                 50319                       # What write queue length does an incoming req see
system.mem_ctrls1.wrQLenPdf::20                 50330                       # What write queue length does an incoming req see
system.mem_ctrls1.wrQLenPdf::21                 50320                       # What write queue length does an incoming req see
system.mem_ctrls1.wrQLenPdf::22                 50326                       # What write queue length does an incoming req see
system.mem_ctrls1.wrQLenPdf::23                 50341                       # What write queue length does an incoming req see
system.mem_ctrls1.wrQLenPdf::24                 50344                       # What write queue length does an incoming req see
system.mem_ctrls1.wrQLenPdf::25                 50344                       # What write queue length does an incoming req see
system.mem_ctrls1.wrQLenPdf::26                 50344                       # What write queue length does an incoming req see
system.mem_ctrls1.wrQLenPdf::27                 50449                       # What write queue length does an incoming req see
system.mem_ctrls1.wrQLenPdf::28                 50646                       # What write queue length does an incoming req see
system.mem_ctrls1.wrQLenPdf::29                 50884                       # What write queue length does an incoming req see
system.mem_ctrls1.wrQLenPdf::30                 50605                       # What write queue length does an incoming req see
system.mem_ctrls1.wrQLenPdf::31                 50383                       # What write queue length does an incoming req see
system.mem_ctrls1.wrQLenPdf::32                 50312                       # What write queue length does an incoming req see
system.mem_ctrls1.wrQLenPdf::33                    22                       # What write queue length does an incoming req see
system.mem_ctrls1.wrQLenPdf::34                     4                       # What write queue length does an incoming req see
system.mem_ctrls1.wrQLenPdf::35                     0                       # What write queue length does an incoming req see
system.mem_ctrls1.wrQLenPdf::36                     0                       # What write queue length does an incoming req see
system.mem_ctrls1.wrQLenPdf::37                     0                       # What write queue length does an incoming req see
system.mem_ctrls1.wrQLenPdf::38                     0                       # What write queue length does an incoming req see
system.mem_ctrls1.wrQLenPdf::39                     0                       # What write queue length does an incoming req see
system.mem_ctrls1.wrQLenPdf::40                     0                       # What write queue length does an incoming req see
system.mem_ctrls1.wrQLenPdf::41                     0                       # What write queue length does an incoming req see
system.mem_ctrls1.wrQLenPdf::42                     0                       # What write queue length does an incoming req see
system.mem_ctrls1.wrQLenPdf::43                     0                       # What write queue length does an incoming req see
system.mem_ctrls1.wrQLenPdf::44                     0                       # What write queue length does an incoming req see
system.mem_ctrls1.wrQLenPdf::45                     0                       # What write queue length does an incoming req see
system.mem_ctrls1.wrQLenPdf::46                     0                       # What write queue length does an incoming req see
system.mem_ctrls1.wrQLenPdf::47                     0                       # What write queue length does an incoming req see
system.mem_ctrls1.wrQLenPdf::48                     0                       # What write queue length does an incoming req see
system.mem_ctrls1.wrQLenPdf::49                     0                       # What write queue length does an incoming req see
system.mem_ctrls1.wrQLenPdf::50                     0                       # What write queue length does an incoming req see
system.mem_ctrls1.wrQLenPdf::51                     0                       # What write queue length does an incoming req see
system.mem_ctrls1.wrQLenPdf::52                     0                       # What write queue length does an incoming req see
system.mem_ctrls1.wrQLenPdf::53                     0                       # What write queue length does an incoming req see
system.mem_ctrls1.wrQLenPdf::54                     0                       # What write queue length does an incoming req see
system.mem_ctrls1.wrQLenPdf::55                     0                       # What write queue length does an incoming req see
system.mem_ctrls1.wrQLenPdf::56                     0                       # What write queue length does an incoming req see
system.mem_ctrls1.wrQLenPdf::57                     0                       # What write queue length does an incoming req see
system.mem_ctrls1.wrQLenPdf::58                     0                       # What write queue length does an incoming req see
system.mem_ctrls1.wrQLenPdf::59                     0                       # What write queue length does an incoming req see
system.mem_ctrls1.wrQLenPdf::60                     0                       # What write queue length does an incoming req see
system.mem_ctrls1.wrQLenPdf::61                     0                       # What write queue length does an incoming req see
system.mem_ctrls1.wrQLenPdf::62                     0                       # What write queue length does an incoming req see
system.mem_ctrls1.wrQLenPdf::63                     0                       # What write queue length does an incoming req see
system.mem_ctrls1.bytesPerActivate::samples      1938863                       # Bytes accessed per row activation
system.mem_ctrls1.bytesPerActivate::mean   100.272871                       # Bytes accessed per row activation
system.mem_ctrls1.bytesPerActivate::gmean    81.930252                       # Bytes accessed per row activation
system.mem_ctrls1.bytesPerActivate::stdev    93.375760                       # Bytes accessed per row activation
system.mem_ctrls1.bytesPerActivate::0-127      1523589     78.58%     78.58% # Bytes accessed per row activation
system.mem_ctrls1.bytesPerActivate::128-255       260397     13.43%     92.01% # Bytes accessed per row activation
system.mem_ctrls1.bytesPerActivate::256-383        71935      3.71%     95.72% # Bytes accessed per row activation
system.mem_ctrls1.bytesPerActivate::384-511        34335      1.77%     97.49% # Bytes accessed per row activation
system.mem_ctrls1.bytesPerActivate::512-639        48052      2.48%     99.97% # Bytes accessed per row activation
system.mem_ctrls1.bytesPerActivate::640-767          368      0.02%     99.99% # Bytes accessed per row activation
system.mem_ctrls1.bytesPerActivate::768-895           98      0.01%    100.00% # Bytes accessed per row activation
system.mem_ctrls1.bytesPerActivate::896-1023           27      0.00%    100.00% # Bytes accessed per row activation
system.mem_ctrls1.bytesPerActivate::1024-1151           62      0.00%    100.00% # Bytes accessed per row activation
system.mem_ctrls1.bytesPerActivate::total      1938863                       # Bytes accessed per row activation
system.mem_ctrls1.rdPerTurnAround::samples        50226                       # Reads before turning the bus around for writes
system.mem_ctrls1.rdPerTurnAround::mean     43.057182                       # Reads before turning the bus around for writes
system.mem_ctrls1.rdPerTurnAround::gmean    40.879208                       # Reads before turning the bus around for writes
system.mem_ctrls1.rdPerTurnAround::stdev   140.613302                       # Reads before turning the bus around for writes
system.mem_ctrls1.rdPerTurnAround::0-1023        50225    100.00%    100.00% # Reads before turning the bus around for writes
system.mem_ctrls1.rdPerTurnAround::30720-31743            1      0.00%    100.00% # Reads before turning the bus around for writes
system.mem_ctrls1.rdPerTurnAround::total        50226                       # Reads before turning the bus around for writes
system.mem_ctrls1.wrPerTurnAround::samples        50226                       # Writes before turning the bus around for reads
system.mem_ctrls1.wrPerTurnAround::mean     17.424123                       # Writes before turning the bus around for reads
system.mem_ctrls1.wrPerTurnAround::gmean    17.397528                       # Writes before turning the bus around for reads
system.mem_ctrls1.wrPerTurnAround::stdev     0.949909                       # Writes before turning the bus around for reads
system.mem_ctrls1.wrPerTurnAround::16           14859     29.58%     29.58% # Writes before turning the bus around for reads
system.mem_ctrls1.wrPerTurnAround::17             780      1.55%     31.14% # Writes before turning the bus around for reads
system.mem_ctrls1.wrPerTurnAround::18           33098     65.90%     97.04% # Writes before turning the bus around for reads
system.mem_ctrls1.wrPerTurnAround::19            1411      2.81%     99.84% # Writes before turning the bus around for reads
system.mem_ctrls1.wrPerTurnAround::20              72      0.14%     99.99% # Writes before turning the bus around for reads
system.mem_ctrls1.wrPerTurnAround::21               5      0.01%    100.00% # Writes before turning the bus around for reads
system.mem_ctrls1.wrPerTurnAround::22               1      0.00%    100.00% # Writes before turning the bus around for reads
system.mem_ctrls1.wrPerTurnAround::total        50226                       # Writes before turning the bus around for reads
system.mem_ctrls1.totQLat                 57797803285                       # Total ticks spent queuing
system.mem_ctrls1.totMemAccLat            98346703285                       # Total ticks spent from burst creation until serviced by the DRAM
system.mem_ctrls1.totBusLat               10813040000                       # Total ticks spent in databus transfers
system.mem_ctrls1.avgQLat                    26725.97                       # Average queueing delay per DRAM burst
system.mem_ctrls1.avgBusLat                   5000.00                       # Average bus latency per DRAM burst
system.mem_ctrls1.avgMemAccLat               45475.97                       # Average memory access latency per DRAM burst
system.mem_ctrls1.avgRdBW                      108.29                       # Average DRAM read bandwidth in MiByte/s
system.mem_ctrls1.avgWrBW                       43.82                       # Average achieved write bandwidth in MiByte/s
system.mem_ctrls1.avgRdBWSys                   108.29                       # Average system read bandwidth in MiByte/s
system.mem_ctrls1.avgWrBWSys                    43.82                       # Average system write bandwidth in MiByte/s
system.mem_ctrls1.peakBW                     12800.00                       # Theoretical peak bandwidth in MiByte/s
system.mem_ctrls1.busUtil                        1.19                       # Data bus utilization in percentage
system.mem_ctrls1.busUtilRead                    0.85                       # Data bus utilization in percentage for reads
system.mem_ctrls1.busUtilWrite                   0.34                       # Data bus utilization in percentage for writes
system.mem_ctrls1.avgRdQLen                      1.02                       # Average read queue length when enqueuing
system.mem_ctrls1.avgWrQLen                     24.34                       # Average write queue length when enqueuing
system.mem_ctrls1.readRowHits                  884998                       # Number of row buffer hits during reads
system.mem_ctrls1.writeRowHits                 213879                       # Number of row buffer hits during writes
system.mem_ctrls1.readRowHitRate                40.92                       # Row buffer hit rate for reads
system.mem_ctrls1.writeRowHitRate               24.44                       # Row buffer hit rate for writes
system.mem_ctrls1.avgGap                    420744.04                       # Average gap between requests
system.mem_ctrls1.pageHitRate                   36.17                       # Row buffer hit rate, read and write combined
system.mem_ctrls1_0.actEnergy              6919466820                       # Energy for activate commands per rank (pJ)
system.mem_ctrls1_0.preEnergy              3677757270                       # Energy for precharge commands per rank (pJ)
system.mem_ctrls1_0.readEnergy             7727943300                       # Energy for read commands per rank (pJ)
system.mem_ctrls1_0.writeEnergy            2284783560                       # Energy for write commands per rank (pJ)
system.mem_ctrls1_0.refreshEnergy        100644226800.000015                       # Energy for refresh commands per rank (pJ)
system.mem_ctrls1_0.actBackEnergy         60875070330                       # Energy for active background per rank (pJ)
system.mem_ctrls1_0.preBackEnergy          3396172800                       # Energy for precharge background per rank (pJ)
system.mem_ctrls1_0.actPowerDownEnergy   360265873440                       # Energy for active power-down per rank (pJ)
system.mem_ctrls1_0.prePowerDownEnergy    93643355040                       # Energy for precharge power-down per rank (pJ)
system.mem_ctrls1_0.selfRefreshEnergy     31973564250                       # Energy for self refresh per rank (pJ)
system.mem_ctrls1_0.totalEnergy          671426195100                       # Total energy per rank (pJ)
system.mem_ctrls1_0.averagePower           525.314812                       # Core power per rank (mW)
system.mem_ctrls1_0.totalIdleTime        1135772065821                       # Total Idle time Per DRAM Rank
system.mem_ctrls1_0.memoryStateTime::IDLE   4435050014                       # Time in different power states
system.mem_ctrls1_0.memoryStateTime::REF  42657034000                       # Time in different power states
system.mem_ctrls1_0.memoryStateTime::SREF 101838828199                       # Time in different power states
system.mem_ctrls1_0.memoryStateTime::PRE_PDN 243868779771                       # Time in different power states
system.mem_ctrls1_0.memoryStateTime::ACT  95276368432                       # Time in different power states
system.mem_ctrls1_0.memoryStateTime::ACT_PDN 790064532904                       # Time in different power states
system.mem_ctrls1_1.actEnergy              6924100680                       # Energy for activate commands per rank (pJ)
system.mem_ctrls1_1.preEnergy              3680227815                       # Energy for precharge commands per rank (pJ)
system.mem_ctrls1_1.readEnergy             7713077820                       # Energy for read commands per rank (pJ)
system.mem_ctrls1_1.writeEnergy            2283468120                       # Energy for write commands per rank (pJ)
system.mem_ctrls1_1.refreshEnergy        100532362320.000015                       # Energy for refresh commands per rank (pJ)
system.mem_ctrls1_1.actBackEnergy         60928822470                       # Energy for active background per rank (pJ)
system.mem_ctrls1_1.preBackEnergy          3392780640                       # Energy for precharge background per rank (pJ)
system.mem_ctrls1_1.actPowerDownEnergy   359017228590                       # Energy for active power-down per rank (pJ)
system.mem_ctrls1_1.prePowerDownEnergy    93887766240                       # Energy for precharge power-down per rank (pJ)
system.mem_ctrls1_1.selfRefreshEnergy     32495937795                       # Energy for self refresh per rank (pJ)
system.mem_ctrls1_1.totalEnergy          670874908230                       # Total energy per rank (pJ)
system.mem_ctrls1_1.averagePower           524.883499                       # Core power per rank (mW)
system.mem_ctrls1_1.totalIdleTime        1135645246817                       # Total Idle time Per DRAM Rank
system.mem_ctrls1_1.memoryStateTime::IDLE   4441264567                       # Time in different power states
system.mem_ctrls1_1.memoryStateTime::REF  42610506000                       # Time in different power states
system.mem_ctrls1_1.memoryStateTime::SREF 103828845006                       # Time in different power states
system.mem_ctrls1_1.memoryStateTime::PRE_PDN 244498284467                       # Time in different power states
system.mem_ctrls1_1.memoryStateTime::ACT  95443484899                       # Time in different power states
system.mem_ctrls1_1.memoryStateTime::ACT_PDN 787318208381                       # Time in different power states
system.pwrStateResidencyTicks::UNDEFINED 118512837025506                       # Cumulative time (in ticks) in various power states
system.cpu.branchPred.lookups                       0                       # Number of BP lookups
system.cpu.branchPred.condPredicted                 0                       # Number of conditional branches predicted
system.cpu.branchPred.condIncorrect                 0                       # Number of conditional branches incorrect
system.cpu.branchPred.BTBLookups                    0                       # Number of BTB lookups
system.cpu.branchPred.BTBHits                       0                       # Number of BTB hits
system.cpu.branchPred.BTBCorrect                    0                       # Number of correct BTB predictions (this stat may not work properly.
system.cpu.branchPred.BTBHitPct                   nan                       # BTB Hit Percentage
system.cpu.branchPred.usedRAS                       0                       # Number of times the RAS was used to get a target.
system.cpu.branchPred.RASInCorrect                  0                       # Number of incorrect RAS predictions.
system.cpu.branchPred.indirectLookups               0                       # Number of indirect predictor lookups.
system.cpu.branchPred.indirectHits                  0                       # Number of indirect target hits.
system.cpu.branchPred.indirectMisses                0                       # Number of indirect misses.
system.cpu.branchPredindirectMispredicted            0                       # Number of mispredicted indirect branches.
system.cpu_voltage_domain.voltage                   1                       # Voltage in Volts
system.cpu_clk_domain.clock                       333                       # Clock period in ticks
system.cpu.dtb.fetch_hits                           0                       # ITB hits
system.cpu.dtb.fetch_misses                         0                       # ITB misses
system.cpu.dtb.fetch_acv                            0                       # ITB acv
system.cpu.dtb.fetch_accesses                       0                       # ITB accesses
system.cpu.dtb.read_hits                            0                       # DTB read hits
system.cpu.dtb.read_misses                          0                       # DTB read misses
system.cpu.dtb.read_acv                             0                       # DTB read access violations
system.cpu.dtb.read_accesses                        0                       # DTB read accesses
system.cpu.dtb.write_hits                           0                       # DTB write hits
system.cpu.dtb.write_misses                         0                       # DTB write misses
system.cpu.dtb.write_acv                            0                       # DTB write access violations
system.cpu.dtb.write_accesses                       0                       # DTB write accesses
system.cpu.dtb.data_hits                            0                       # DTB hits
system.cpu.dtb.data_misses                          0                       # DTB misses
system.cpu.dtb.data_acv                             0                       # DTB access violations
system.cpu.dtb.data_accesses                        0                       # DTB accesses
system.cpu.itb.fetch_hits                           3                       # ITB hits
system.cpu.itb.fetch_misses                         0                       # ITB misses
system.cpu.itb.fetch_acv                            0                       # ITB acv
system.cpu.itb.fetch_accesses                       3                       # ITB accesses
system.cpu.itb.read_hits                            0                       # DTB read hits
system.cpu.itb.read_misses                          0                       # DTB read misses
system.cpu.itb.read_acv                             0                       # DTB read access violations
system.cpu.itb.read_accesses                        0                       # DTB read accesses
system.cpu.itb.write_hits                           0                       # DTB write hits
system.cpu.itb.write_misses                         0                       # DTB write misses
system.cpu.itb.write_acv                            0                       # DTB write access violations
system.cpu.itb.write_accesses                       0                       # DTB write accesses
system.cpu.itb.data_hits                            0                       # DTB hits
system.cpu.itb.data_misses                          0                       # DTB misses
system.cpu.itb.data_acv                             0                       # DTB access violations
system.cpu.itb.data_accesses                        0                       # DTB accesses
system.cpu.workload.num_syscalls                    0                       # Number of system calls
system.cpu.pwrStateResidencyTicks::ON    1278140593320                       # Cumulative time (in ticks) in various power states
system.cpu.numCycles                              294                       # number of cpu cycles simulated
system.cpu.numWorkItemsStarted                      0                       # number of work items this cpu started
system.cpu.numWorkItemsCompleted                    0                       # number of work items this cpu completed
system.cpu.fetch.icacheStallCycles                 23                       # Number of cycles fetch is stalled on an Icache miss
system.cpu.fetch.Insts                              7                       # Number of instructions fetch has processed
system.cpu.fetch.Cycles                             1                       # Number of cycles fetch has run and was not squashing or blocked
system.cpu.fetch.SquashCycles                       3                       # Number of cycles fetch has spent squashing
system.cpu.fetch.PendingDrainCycles                 3                       # Number of cycles fetch has spent waiting on pipes to drain
system.cpu.fetch.CacheLines                         3                       # Number of cache lines fetched
system.cpu.fetch.IcacheSquashes                     2                       # Number of outstanding Icache misses that were squashed
system.cpu.fetch.rateDist::samples                 28                       # Number of instructions fetched each cycle (Total)
system.cpu.fetch.rateDist::mean              0.250000                       # Number of instructions fetched each cycle (Total)
system.cpu.fetch.rateDist::stdev             1.322876                       # Number of instructions fetched each cycle (Total)
system.cpu.fetch.rateDist::underflows               0      0.00%      0.00% # Number of instructions fetched each cycle (Total)
system.cpu.fetch.rateDist::0                       27     96.43%     96.43% # Number of instructions fetched each cycle (Total)
system.cpu.fetch.rateDist::1                        0      0.00%     96.43% # Number of instructions fetched each cycle (Total)
system.cpu.fetch.rateDist::2                        0      0.00%     96.43% # Number of instructions fetched each cycle (Total)
system.cpu.fetch.rateDist::3                        0      0.00%     96.43% # Number of instructions fetched each cycle (Total)
system.cpu.fetch.rateDist::4                        0      0.00%     96.43% # Number of instructions fetched each cycle (Total)
system.cpu.fetch.rateDist::5                        0      0.00%     96.43% # Number of instructions fetched each cycle (Total)
system.cpu.fetch.rateDist::6                        0      0.00%     96.43% # Number of instructions fetched each cycle (Total)
system.cpu.fetch.rateDist::7                        1      3.57%    100.00% # Number of instructions fetched each cycle (Total)
system.cpu.fetch.rateDist::8                        0      0.00%    100.00% # Number of instructions fetched each cycle (Total)
system.cpu.fetch.rateDist::overflows                0      0.00%    100.00% # Number of instructions fetched each cycle (Total)
system.cpu.fetch.rateDist::min_value                0                       # Number of instructions fetched each cycle (Total)
system.cpu.fetch.rateDist::max_value                7                       # Number of instructions fetched each cycle (Total)
system.cpu.fetch.rateDist::total                   28                       # Number of instructions fetched each cycle (Total)
system.cpu.fetch.branchRate                         0                       # Number of branch fetches per cycle
system.cpu.fetch.rate                        0.023810                       # Number of inst fetches per cycle
system.cpu.decode.IdleCycles                       25                       # Number of cycles decode is idle
[...]
system.switch_cpus_1.iq.fu_busy_rate         0.124727                       # FU busy rate (busy events/executed inst)
system.switch_cpus_1.iq.int_inst_queue_reads    353185021                       # Number of integer instruction queue reads
system.switch_cpus_1.iq.int_inst_queue_writes     88302922                       # Number of integer instruction queue writes
system.switch_cpus_1.iq.int_inst_queue_wakeup_accesses     82015564                       # Number of integer instruction queue wakeup accesses
system.switch_cpus_1.iq.fp_inst_queue_reads    277272055                       # Number of floating instruction queue reads
system.switch_cpus_1.iq.fp_inst_queue_writes    139207983                       # Number of floating instruction queue writes
system.switch_cpus_1.iq.fp_inst_queue_wakeup_accesses    125975674                       # Number of floating instruction queue wakeup accesses
system.switch_cpus_1.iq.int_alu_accesses     84678581                       # Number of integer alu accesses
system.switch_cpus_1.iq.fp_alu_accesses     150491821                       # Number of floating point alu accesses
system.switch_cpus_1.iew.lsq.thread0.forwLoads      1413282                       # Number of loads that had data forwarded from stores
system.switch_cpus_1.iew.lsq.thread0.invAddrLoads            0                       # Number of loads ignored due to an invalid address
system.switch_cpus_1.iew.lsq.thread0.squashedLoads      3337023                       # Number of loads squashed
system.switch_cpus_1.iew.lsq.thread0.ignoredResponses           48                       # Number of memory responses ignored because the instruction is squashed
system.switch_cpus_1.iew.lsq.thread0.memOrderViolation         1766                       # Number of memory ordering violations
system.switch_cpus_1.iew.lsq.thread0.squashedStores       796057                       # Number of stores squashed
system.switch_cpus_1.iew.lsq.thread0.invAddrSwpfs            0                       # Number of software prefetches ignored due to an invalid address
system.switch_cpus_1.iew.lsq.thread0.blockedLoads            0                       # Number of blocked loads due to partial load-store forwarding
system.switch_cpus_1.iew.lsq.thread0.rescheduledLoads            0                       # Number of loads that were rescheduled
system.switch_cpus_1.iew.lsq.thread0.cacheBlocked       311578                       # Number of times an access to memory failed due to the cache being blocked
system.switch_cpus_1.iew.iewIdleCycles              0                       # Number of cycles IEW is idle
system.switch_cpus_1.iew.iewSquashCycles       140437                       # Number of cycles IEW is squashing
system.switch_cpus_1.iew.iewBlockCycles      37658005                       # Number of cycles IEW is blocking
system.switch_cpus_1.iew.iewUnblockCycles     12378659                       # Number of cycles IEW is unblocking
system.switch_cpus_1.iew.iewDispatchedInsts    213933932                       # Number of instructions dispatched to IQ
system.switch_cpus_1.iew.iewDispSquashedInsts          720                       # Number of squashed instructions skipped by dispatch
system.switch_cpus_1.iew.iewDispLoadInsts     44137072                       # Number of dispatched load instructions
system.switch_cpus_1.iew.iewDispStoreInsts     13325099                       # Number of dispatched store instructions
system.switch_cpus_1.iew.iewDispNonSpecInsts            0                       # Number of dispatched non-speculative instructions
system.switch_cpus_1.iew.iewIQFullEvents       894897                       # Number of times the IQ has become full, causing a stall
system.switch_cpus_1.iew.iewLSQFullEvents     11242942                       # Number of times the LSQ has become full, causing a stall
system.switch_cpus_1.iew.memOrderViolationEvents         1766                       # Number of memory order violations
system.switch_cpus_1.iew.predictedTakenIncorrect          548                       # Number of branches that were predicted taken incorrectly
system.switch_cpus_1.iew.predictedNotTakenIncorrect        15424                       # Number of branches that were predicted not taken incorrectly
system.switch_cpus_1.iew.branchMispredicts        15972                       # Number of branch mispredicts detected at execute
system.switch_cpus_1.iew.iewExecutedInsts    208884180                       # Number of executed instructions
system.switch_cpus_1.iew.iewExecLoadInsts     44108807                       # Number of load instructions executed
system.switch_cpus_1.iew.iewExecSquashedInsts       206891                       # Number of squashed instructions skipped in execute
system.switch_cpus_1.iew.exec_swp                   0                       # number of swp insts executed
system.switch_cpus_1.iew.exec_nop              179324                       # number of nop insts executed
system.switch_cpus_1.iew.exec_refs           57062547                       # number of memory reference insts executed
system.switch_cpus_1.iew.exec_branches        1499253                       # Number of branches executed
system.switch_cpus_1.iew.exec_stores         12953740                       # Number of stores executed
system.switch_cpus_1.iew.exec_rate           1.121977                       # Inst execution rate
system.switch_cpus_1.iew.wb_sent            208444160                       # cumulative count of insts sent to commit
system.switch_cpus_1.iew.wb_count           207991238                       # cumulative count of insts written-back
system.switch_cpus_1.iew.wb_producers       138539955                       # num instructions producing a value
system.switch_cpus_1.iew.wb_consumers       165951657                       # num instructions consuming a value
system.switch_cpus_1.iew.wb_rate             1.117181                       # insts written-back per cycle
system.switch_cpus_1.iew.wb_fanout           0.834821                       # average fanout of values written-back
system.switch_cpus_1.commit.commitSquashedInsts     11066862                       # The number of squashed insts skipped by commit
system.switch_cpus_1.commit.branchMispredicts        15478                       # The number of times a branch was mispredicted
system.switch_cpus_1.commit.committed_per_cycle::samples    184739241                       # Number of insts commited each cycle
system.switch_cpus_1.commit.committed_per_cycle::mean     1.083546                       # Number of insts commited each cycle
system.switch_cpus_1.commit.committed_per_cycle::stdev     2.532646                       # Number of insts commited each cycle
system.switch_cpus_1.commit.committed_per_cycle::underflows            0      0.00%      0.00% # Number of insts commited each cycle
system.switch_cpus_1.commit.committed_per_cycle::0    149834719     81.11%     81.11% # Number of insts commited each cycle
system.switch_cpus_1.commit.committed_per_cycle::1      3944459      2.14%     83.24% # Number of insts commited each cycle
system.switch_cpus_1.commit.committed_per_cycle::2      2990367      1.62%     84.86% # Number of insts commited each cycle
system.switch_cpus_1.commit.committed_per_cycle::3      2734859      1.48%     86.34% # Number of insts commited each cycle
system.switch_cpus_1.commit.committed_per_cycle::4      2416419      1.31%     87.65% # Number of insts commited each cycle
system.switch_cpus_1.commit.committed_per_cycle::5      2017768      1.09%     88.74% # Number of insts commited each cycle
system.switch_cpus_1.commit.committed_per_cycle::6      1370912      0.74%     89.48% # Number of insts commited each cycle
system.switch_cpus_1.commit.committed_per_cycle::7      1374206      0.74%     90.23% # Number of insts commited each cycle
system.switch_cpus_1.commit.committed_per_cycle::8     18055532      9.77%    100.00% # Number of insts commited each cycle
system.switch_cpus_1.commit.committed_per_cycle::overflows            0      0.00%    100.00% # Number of insts commited each cycle
system.switch_cpus_1.commit.committed_per_cycle::min_value            0                       # Number of insts commited each cycle
system.switch_cpus_1.commit.committed_per_cycle::max_value            8                       # Number of insts commited each cycle
system.switch_cpus_1.commit.committed_per_cycle::total    184739241                       # Number of insts commited each cycle
system.switch_cpus_1.commit.committedInsts    200173456                       # Number of instructions committed
system.switch_cpus_1.commit.committedOps    200173456                       # Number of ops (including micro ops) committed
system.switch_cpus_1.commit.swp_count               0                       # Number of s/w prefetches committed
system.switch_cpus_1.commit.refs             53329056                       # Number of memory references committed
system.switch_cpus_1.commit.loads            40800023                       # Number of loads committed
system.switch_cpus_1.commit.membars                 0                       # Number of memory barriers committed
system.switch_cpus_1.commit.branches          1403066                       # Number of branches committed
system.switch_cpus_1.commit.fp_insts        122294760                       # Number of committed floating point instructions.
system.switch_cpus_1.commit.int_insts       127004953                       # Number of committed integer instructions.
system.switch_cpus_1.commit.function_calls            7                       # Number of function calls committed.
system.switch_cpus_1.commit.op_class_0::No_OpClass       173452      0.09%      0.09% # Class of committed instruction
system.switch_cpus_1.commit.op_class_0::IntAlu     61200061     30.57%     30.66% # Class of committed instruction
system.switch_cpus_1.commit.op_class_0::IntMult            0      0.00%     30.66% # Class of committed instruction
system.switch_cpus_1.commit.op_class_0::IntDiv            0      0.00%     30.66% # Class of committed instruction
system.switch_cpus_1.commit.op_class_0::FloatAdd     35376177     17.67%     48.33% # Class of committed instruction
system.switch_cpus_1.commit.op_class_0::FloatCmp      8364224      4.18%     52.51% # Class of committed instruction
system.switch_cpus_1.commit.op_class_0::FloatCvt     12546336      6.27%     58.78% # Class of committed instruction
system.switch_cpus_1.commit.op_class_0::FloatMult     26817554     13.40%     72.18% # Class of committed instruction
system.switch_cpus_1.commit.op_class_0::FloatMultAcc            0      0.00%     72.18% # Class of committed instruction
system.switch_cpus_1.commit.op_class_0::FloatDiv      2366596      1.18%     73.36% # Class of committed instruction
system.switch_cpus_1.commit.op_class_0::FloatMisc            0      0.00%     73.36% # Class of committed instruction
system.switch_cpus_1.commit.op_class_0::FloatSqrt            0      0.00%     73.36% # Class of committed instruction
system.switch_cpus_1.commit.op_class_0::SimdAdd            0      0.00%     73.36% # Class of committed instruction
system.switch_cpus_1.commit.op_class_0::SimdAddAcc            0      0.00%     73.36% # Class of committed instruction
system.switch_cpus_1.commit.op_class_0::SimdAlu            0      0.00%     73.36% # Class of committed instruction
system.switch_cpus_1.commit.op_class_0::SimdCmp            0      0.00%     73.36% # Class of committed instruction
system.switch_cpus_1.commit.op_class_0::SimdCvt            0      0.00%     73.36% # Class of committed instruction
system.switch_cpus_1.commit.op_class_0::SimdMisc            0      0.00%     73.36% # Class of committed instruction
system.switch_cpus_1.commit.op_class_0::SimdMult            0      0.00%     73.36% # Class of committed instruction
system.switch_cpus_1.commit.op_class_0::SimdMultAcc            0      0.00%     73.36% # Class of committed instruction
system.switch_cpus_1.commit.op_class_0::SimdShift            0      0.00%     73.36% # Class of committed instruction
system.switch_cpus_1.commit.op_class_0::SimdShiftAcc            0      0.00%     73.36% # Class of committed instruction
system.switch_cpus_1.commit.op_class_0::SimdSqrt            0      0.00%     73.36% # Class of committed instruction
system.switch_cpus_1.commit.op_class_0::SimdFloatAdd            0      0.00%     73.36% # Class of committed instruction
system.switch_cpus_1.commit.op_class_0::SimdFloatAlu            0      0.00%     73.36% # Class of committed instruction
system.switch_cpus_1.commit.op_class_0::SimdFloatCmp            0      0.00%     73.36% # Class of committed instruction
system.switch_cpus_1.commit.op_class_0::SimdFloatCvt            0      0.00%     73.36% # Class of committed instruction
system.switch_cpus_1.commit.op_class_0::SimdFloatDiv            0      0.00%     73.36% # Class of committed instruction
system.switch_cpus_1.commit.op_class_0::SimdFloatMisc            0      0.00%     73.36% # Class of committed instruction
system.switch_cpus_1.commit.op_class_0::SimdFloatMult            0      0.00%     73.36% # Class of committed instruction
system.switch_cpus_1.commit.op_class_0::SimdFloatMultAcc            0      0.00%     73.36% # Class of committed instruction
system.switch_cpus_1.commit.op_class_0::SimdFloatSqrt            0      0.00%     73.36% # Class of committed instruction
system.switch_cpus_1.commit.op_class_0::MemRead     12460377      6.22%     79.58% # Class of committed instruction
system.switch_cpus_1.commit.op_class_0::MemWrite      4044806      2.02%     81.60% # Class of committed instruction
system.switch_cpus_1.commit.op_class_0::FloatMemRead     28339646     14.16%     95.76% # Class of committed instruction
system.switch_cpus_1.commit.op_class_0::FloatMemWrite      8484227      4.24%    100.00% # Class of committed instruction
system.switch_cpus_1.commit.op_class_0::IprAccess            0      0.00%    100.00% # Class of committed instruction
system.switch_cpus_1.commit.op_class_0::InstPrefetch            0      0.00%    100.00% # Class of committed instruction
system.switch_cpus_1.commit.op_class_0::total    200173456                       # Class of committed instruction
system.switch_cpus_1.commit.bw_lim_events     18055532                       # number cycles where commit BW limit reached
system.switch_cpus_1.rob.rob_reads          376318917                       # The number of ROB reads
system.switch_cpus_1.rob.rob_writes         423914442                       # The number of ROB writes
system.switch_cpus_1.timesIdled                    11                       # Number of times that the entire CPU went into an idle state and unscheduled itself
system.switch_cpus_1.idleCycles                  2161                       # Total number of cycles that the CPU has spent unscheduled due to idling
system.switch_cpus_1.committedInsts         200000004                       # Number of Instructions Simulated
system.switch_cpus_1.committedOps           200000004                       # Number of Ops (including micro ops) Simulated
system.switch_cpus_1.cpi                     0.930875                       # CPI: Cycles Per Instruction
system.switch_cpus_1.cpi_total               0.930875                       # CPI: Total CPI of All Threads
system.switch_cpus_1.ipc                     1.074258                       # IPC: Instructions Per Cycle
system.switch_cpus_1.ipc_total               1.074258                       # IPC: Total IPC of All Threads
system.switch_cpus_1.int_regfile_reads      175650142                       # number of integer regfile reads
system.switch_cpus_1.int_regfile_writes      84673400                       # number of integer regfile writes
system.switch_cpus_1.fp_regfile_reads       170480118                       # number of floating regfile reads
system.switch_cpus_1.fp_regfile_writes      108911193                       # number of floating regfile writes
system.tol3bus.snoop_filter.tot_requests      9621282                       # Total number of requests made to the snoop filter.
system.tol3bus.snoop_filter.hit_single_requests      4808454                       # Number of requests hitting in the snoop filter with a single holder of the requested data.
system.tol3bus.snoop_filter.hit_multi_requests            0                       # Number of requests hitting in the snoop filter with multiple (>1) holders of the requested data.
system.tol3bus.snoop_filter.tot_snoops           1827                       # Total number of snoops made to the snoop filter.
system.tol3bus.snoop_filter.hit_single_snoops         1827                       # Number of snoops hitting in the snoop filter with a single holder of the requested data.
system.tol3bus.snoop_filter.hit_multi_snoops            0                       # Number of snoops hitting in the snoop filter with multiple (>1) holders of the requested data.
system.tol3bus.pwrStateResidencyTicks::UNDEFINED 118512837025506                       # Cumulative time (in ticks) in various power states
system.tol3bus.trans_dist::ReadResp           4255838                       # Transaction distribution
system.tol3bus.trans_dist::WritebackDirty      3554065                       # Transaction distribution
system.tol3bus.trans_dist::CleanEvict         5514620                       # Transaction distribution
system.tol3bus.trans_dist::UpgradeReq               1                       # Transaction distribution
system.tol3bus.trans_dist::UpgradeResp              1                       # Transaction distribution
system.tol3bus.trans_dist::ReadExReq           556990                       # Transaction distribution
system.tol3bus.trans_dist::ReadExResp          556990                       # Transaction distribution
system.tol3bus.trans_dist::ReadSharedReq      4255838                       # Transaction distribution
system.tol3bus.pkt_count_system.cpu.l2.mem_side::system.l3.cpu_side     14434111                       # Packet count per connected master and slave (bytes)
system.tol3bus.pkt_size_system.cpu.l2.mem_side::system.l3.cpu_side    423452224                       # Cumulative packet size per connected master and slave (bytes)
system.tol3bus.snoops                         4260232                       # Total snoops (count)
system.tol3bus.snoopTraffic                 112028928                       # Total snoop traffic (bytes)
system.tol3bus.snoop_fanout::samples          9073061                       # Request fanout histogram
system.tol3bus.snoop_fanout::mean            0.000201                       # Request fanout histogram
system.tol3bus.snoop_fanout::stdev           0.014189                       # Request fanout histogram
system.tol3bus.snoop_fanout::underflows             0      0.00%      0.00% # Request fanout histogram
system.tol3bus.snoop_fanout::0                9071234     99.98%     99.98% # Request fanout histogram
system.tol3bus.snoop_fanout::1                   1827      0.02%    100.00% # Request fanout histogram
system.tol3bus.snoop_fanout::overflows              0      0.00%    100.00% # Request fanout histogram
system.tol3bus.snoop_fanout::min_value              0                       # Request fanout histogram
system.tol3bus.snoop_fanout::max_value              1                       # Request fanout histogram
system.tol3bus.snoop_fanout::total            9073061                       # Request fanout histogram
system.tol3bus.reqLayer0.occupancy         3804490035                       # Layer occupancy (ticks)
system.tol3bus.reqLayer0.utilization              0.3                       # Layer utilization (%)
system.tol3bus.respLayer0.occupancy        3205343781                       # Layer occupancy (ticks)
system.tol3bus.respLayer0.utilization             0.3                       # Layer utilization (%)

---------- End Simulation Statistics   ----------
