
---------- Begin Simulation Statistics ----------
sim_seconds                                 13.148990                       # Number of seconds simulated
sim_ticks                                13148989926165                       # Number of ticks simulated
final_tick                               175231173088665                       # Number of ticks from beginning of simulation (restored from checkpoints and never reset)
sim_freq                                 1000000000000                       # Frequency of simulated ticks
host_inst_rate                                  37544                       # Simulator instruction rate (inst/s)
host_op_rate                                    37544                       # Simulator op (including micro ops) rate (op/s)
host_tick_rate                              411388193                       # Simulator tick rate (ticks/s)
host_mem_usage                                2689536                       # Number of bytes of host memory used
host_seconds                                 31962.49                       # Real time elapsed on the host
sim_insts                                  1200000012                       # Number of instructions simulated
sim_ops                                    1200000012                       # Number of ops (including micro ops) simulated
system.voltage_domain.voltage                       1                       # Voltage in Volts
system.clk_domain.clock                          1000                       # Clock period in ticks
system.mem_ctrls0.pwrStateResidencyTicks::UNDEFINED 175231173088665                       # Cumulative time (in ticks) in various power states
system.mem_ctrls0.bytes_read::cpu.inst            128                       # Number of bytes read from this memory
system.mem_ctrls0.bytes_read::switch_cpus.inst         1472                       # Number of bytes read from this memory
system.mem_ctrls0.bytes_read::switch_cpus.data   1948533632                       # Number of bytes read from this memory
system.mem_ctrls0.bytes_read::switch_cpus_1.inst          128                       # Number of bytes read from this memory
system.mem_ctrls0.bytes_read::switch_cpus_1.data    389570560                       # Number of bytes read from this memory
system.mem_ctrls0.bytes_read::total        2338105920                       # Number of bytes read from this memory
system.mem_ctrls0.bytes_inst_read::cpu.inst          128                       # Number of instructions bytes read from this memory
system.mem_ctrls0.bytes_inst_read::switch_cpus.inst         1472                       # Number of instructions bytes read from this memory
system.mem_ctrls0.bytes_inst_read::switch_cpus_1.inst          128                       # Number of instructions bytes read from this memory
system.mem_ctrls0.bytes_inst_read::total         1728                       # Number of instructions bytes read from this memory
system.mem_ctrls0.bytes_written::writebacks      3743168                       # Number of bytes written to this memory
system.mem_ctrls0.bytes_written::total        3743168                       # Number of bytes written to this memory
system.mem_ctrls0.num_reads::cpu.inst               2                       # Number of read requests responded to by this memory
system.mem_ctrls0.num_reads::switch_cpus.inst           23                       # Number of read requests responded to by this memory
system.mem_ctrls0.num_reads::switch_cpus.data     30445838                       # Number of read requests responded to by this memory
system.mem_ctrls0.num_reads::switch_cpus_1.inst            2                       # Number of read requests responded to by this memory
system.mem_ctrls0.num_reads::switch_cpus_1.data      6087040                       # Number of read requests responded to by this memory
system.mem_ctrls0.num_reads::total           36532905                       # Number of read requests responded to by this memory
system.mem_ctrls0.num_writes::writebacks        58487                       # Number of write requests responded to by this memory
system.mem_ctrls0.num_writes::total             58487                       # Number of write requests responded to by this memory
system.mem_ctrls0.bw_read::cpu.inst                10                       # Total read bandwidth from this memory (bytes/s)
system.mem_ctrls0.bw_read::switch_cpus.inst          112                       # Total read bandwidth from this memory (bytes/s)
system.mem_ctrls0.bw_read::switch_cpus.data    148188845                       # Total read bandwidth from this memory (bytes/s)
system.mem_ctrls0.bw_read::switch_cpus_1.inst           10                       # Total read bandwidth from this memory (bytes/s)
system.mem_ctrls0.bw_read::switch_cpus_1.data     29627413                       # Total read bandwidth from this memory (bytes/s)
system.mem_ctrls0.bw_read::total            177816390                       # Total read bandwidth from this memory (bytes/s)
system.mem_ctrls0.bw_inst_read::cpu.inst           10                       # Instruction read bandwidth from this memory (bytes/s)
system.mem_ctrls0.bw_inst_read::switch_cpus.inst          112                       # Instruction read bandwidth from this memory (bytes/s)
system.mem_ctrls0.bw_inst_read::switch_cpus_1.inst           10                       # Instruction read bandwidth from this memory (bytes/s)
system.mem_ctrls0.bw_inst_read::total             131                       # Instruction read bandwidth from this memory (bytes/s)
system.mem_ctrls0.bw_write::writebacks         284673                       # Write bandwidth from this memory (bytes/s)
system.mem_ctrls0.bw_write::total              284673                       # Write bandwidth from this memory (bytes/s)
system.mem_ctrls0.bw_total::writebacks         284673                       # Total bandwidth to/from this memory (bytes/s)
system.mem_ctrls0.bw_total::cpu.inst               10                       # Total bandwidth to/from this memory (bytes/s)
system.mem_ctrls0.bw_total::switch_cpus.inst          112                       # Total bandwidth to/from this memory (bytes/s)
system.mem_ctrls0.bw_total::switch_cpus.data    148188845                       # Total bandwidth to/from this memory (bytes/s)
system.mem_ctrls0.bw_total::switch_cpus_1.inst           10                       # Total bandwidth to/from this memory (bytes/s)
system.mem_ctrls0.bw_total::switch_cpus_1.data     29627413                       # Total bandwidth to/from this memory (bytes/s)
system.mem_ctrls0.bw_total::total           178101063                       # Total bandwidth to/from this memory (bytes/s)
system.mem_ctrls0.readReqs                   36532905                       # Number of read requests accepted
system.mem_ctrls0.writeReqs                     58487                       # Number of write requests accepted
system.mem_ctrls0.readBursts                 36532905                       # Number of DRAM read bursts, including those serviced by the write queue
system.mem_ctrls0.writeBursts                   58487                       # Number of DRAM write bursts, including those merged in the write queue
system.mem_ctrls0.bytesReadDRAM            2337762368                       # Total number of bytes read from DRAM
system.mem_ctrls0.bytesReadWrQ                 343552                       # Total number of bytes read from write queue
system.mem_ctrls0.bytesWritten                3726336                       # Total number of bytes written to DRAM
system.mem_ctrls0.bytesReadSys             2338105920                       # Total read bytes from the system interface side
system.mem_ctrls0.bytesWrittenSys             3743168                       # Total written bytes from the system interface side
system.mem_ctrls0.servicedByWrQ                  5368                       # Number of DRAM read bursts serviced by the write queue
system.mem_ctrls0.mergedWrBursts                  242                       # Number of DRAM write bursts merged with an existing one
system.mem_ctrls0.neitherReadNorWriteReqs            0                       # Number of requests that are neither read nor write
system.mem_ctrls0.perBankRdBursts::0          2274463                       # Per bank write bursts
system.mem_ctrls0.perBankRdBursts::1          2282890                       # Per bank write bursts
system.mem_ctrls0.perBankRdBursts::2          2295774                       # Per bank write bursts
system.mem_ctrls0.perBankRdBursts::3          2295159                       # Per bank write bursts
system.mem_ctrls0.perBankRdBursts::4          2292483                       # Per bank write bursts
system.mem_ctrls0.perBankRdBursts::5          2284618                       # Per bank write bursts
system.mem_ctrls0.perBankRdBursts::6          2288339                       # Per bank write bursts
system.mem_ctrls0.perBankRdBursts::7          2275724                       # Per bank write bursts
system.mem_ctrls0.perBankRdBursts::8          2290044                       # Per bank write bursts
system.mem_ctrls0.perBankRdBursts::9          2281059                       # Per bank write bursts
system.mem_ctrls0.perBankRdBursts::10         2284980                       # Per bank write bursts
system.mem_ctrls0.perBankRdBursts::11         2292345                       # Per bank write bursts
system.mem_ctrls0.perBankRdBursts::12         2276699                       # Per bank write bursts
system.mem_ctrls0.perBankRdBursts::13         2275613                       # Per bank write bursts
system.mem_ctrls0.perBankRdBursts::14         2280094                       # Per bank write bursts
system.mem_ctrls0.perBankRdBursts::15         2257253                       # Per bank write bursts
system.mem_ctrls0.perBankWrBursts::0             3407                       # Per bank write bursts
system.mem_ctrls0.perBankWrBursts::1             3445                       # Per bank write bursts
system.mem_ctrls0.perBankWrBursts::2             3337                       # Per bank write bursts
system.mem_ctrls0.perBankWrBursts::3             4341                       # Per bank write bursts
system.mem_ctrls0.perBankWrBursts::4             5214                       # Per bank write bursts
system.mem_ctrls0.perBankWrBursts::5             3447                       # Per bank write bursts
system.mem_ctrls0.perBankWrBursts::6             3380                       # Per bank write bursts
system.mem_ctrls0.perBankWrBursts::7             3705                       # Per bank write bursts
system.mem_ctrls0.perBankWrBursts::8             3820                       # Per bank write bursts
system.mem_ctrls0.perBankWrBursts::9             3434                       # Per bank write bursts
system.mem_ctrls0.perBankWrBursts::10            3528                       # Per bank write bursts
system.mem_ctrls0.perBankWrBursts::11            3487                       # Per bank write bursts
system.mem_ctrls0.perBankWrBursts::12            3396                       # Per bank write bursts
system.mem_ctrls0.perBankWrBursts::13            3429                       # Per bank write bursts
system.mem_ctrls0.perBankWrBursts::14            3424                       # Per bank write bursts
system.mem_ctrls0.perBankWrBursts::15            3430                       # Per bank write bursts
system.mem_ctrls0.numRdRetry                        0                       # Number of times read queue was full causing retry
system.mem_ctrls0.numWrRetry                        0                       # Number of times write queue was full causing retry
system.mem_ctrls0.totGap                 13148989137711                       # Total gap between requests
system.mem_ctrls0.readPktSize::0                    0                       # Read request sizes (log2)
system.mem_ctrls0.readPktSize::1                    0                       # Read request sizes (log2)
system.mem_ctrls0.readPktSize::2                    0                       # Read request sizes (log2)
system.mem_ctrls0.readPktSize::3                    0                       # Read request sizes (log2)
system.mem_ctrls0.readPktSize::4                    0                       # Read request sizes (log2)
system.mem_ctrls0.readPktSize::5                    0                       # Read request sizes (log2)
system.mem_ctrls0.readPktSize::6             36532905                       # Read request sizes (log2)
system.mem_ctrls0.writePktSize::0                   0                       # Write request sizes (log2)
system.mem_ctrls0.writePktSize::1                   0                       # Write request sizes (log2)
system.mem_ctrls0.writePktSize::2                   0                       # Write request sizes (log2)
system.mem_ctrls0.writePktSize::3                   0                       # Write request sizes (log2)
system.mem_ctrls0.writePktSize::4                   0                       # Write request sizes (log2)
system.mem_ctrls0.writePktSize::5                   0                       # Write request sizes (log2)
system.mem_ctrls0.writePktSize::6               58487                       # Write request sizes (log2)
system.mem_ctrls0.rdQLenPdf::0               36526482                       # What read queue length does an incoming req see
system.mem_ctrls0.rdQLenPdf::1                   1026                       # What read queue length does an incoming req see
system.mem_ctrls0.rdQLenPdf::2                     27                       # What read queue length does an incoming req see
system.mem_ctrls0.rdQLenPdf::3                      2                       # What read queue length does an incoming req see
system.mem_ctrls0.rdQLenPdf::4                      0                       # What read queue length does an incoming req see
system.mem_ctrls0.rdQLenPdf::5                      0                       # What read queue length does an incoming req see
system.mem_ctrls0.rdQLenPdf::6                      0                       # What read queue length does an incoming req see
system.mem_ctrls0.rdQLenPdf::7                      0                       # What read queue length does an incoming req see
system.mem_ctrls0.rdQLenPdf::8                      0                       # What read queue length does an incoming req see
system.mem_ctrls0.rdQLenPdf::9                      0                       # What read queue length does an incoming req see
system.mem_ctrls0.rdQLenPdf::10                     0                       # What read queue length does an incoming req see
system.mem_ctrls0.rdQLenPdf::11                     0                       # What read queue length does an incoming req see
system.mem_ctrls0.rdQLenPdf::12                     0                       # What read queue length does an incoming req see
system.mem_ctrls0.rdQLenPdf::13                     0                       # What read queue length does an incoming req see
system.mem_ctrls0.rdQLenPdf::14                     0                       # What read queue length does an incoming req see
system.mem_ctrls0.rdQLenPdf::15                     0                       # What read queue length does an incoming req see
system.mem_ctrls0.rdQLenPdf::16                     0                       # What read queue length does an incoming req see
system.mem_ctrls0.rdQLenPdf::17                     0                       # What read queue length does an incoming req see
system.mem_ctrls0.rdQLenPdf::18                     0                       # What read queue length does an incoming req see
system.mem_ctrls0.rdQLenPdf::19                     0                       # What read queue length does an incoming req see
system.mem_ctrls0.rdQLenPdf::20                     0                       # What read queue length does an incoming req see
system.mem_ctrls0.rdQLenPdf::21                     0                       # What read queue length does an incoming req see
system.mem_ctrls0.rdQLenPdf::22                     0                       # What read queue length does an incoming req see
system.mem_ctrls0.rdQLenPdf::23                     0                       # What read queue length does an incoming req see
system.mem_ctrls0.rdQLenPdf::24                     0                       # What read queue length does an incoming req see
system.mem_ctrls0.rdQLenPdf::25                     0                       # What read queue length does an incoming req see
system.mem_ctrls0.rdQLenPdf::26                     0                       # What read queue length does an incoming req see
system.mem_ctrls0.rdQLenPdf::27                     0                       # What read queue length does an incoming req see
system.mem_ctrls0.rdQLenPdf::28                     0                       # What read queue length does an incoming req see
system.mem_ctrls0.rdQLenPdf::29                     0                       # What read queue length does an incoming req see
system.mem_ctrls0.rdQLenPdf::30                     0                       # What read queue length does an incoming req see
system.mem_ctrls0.rdQLenPdf::31                     0                       # What read queue length does an incoming req see
system.mem_ctrls0.wrQLenPdf::0                      2                       # What write queue length does an incoming req see
system.mem_ctrls0.wrQLenPdf::1                      2                       # What write queue length does an incoming req see
system.mem_ctrls0.wrQLenPdf::2                      2                       # What write queue length does an incoming req see
system.mem_ctrls0.wrQLenPdf::3                      2                       # What write queue length does an incoming req see
system.mem_ctrls0.wrQLenPdf::4                      2                       # What write queue length does an incoming req see
system.mem_ctrls0.wrQLenPdf::5                      2                       # What write queue length does an incoming req see
system.mem_ctrls0.wrQLenPdf::6                      2                       # What write queue length does an incoming req see
system.mem_ctrls0.wrQLenPdf::7                      2                       # What write queue length does an incoming req see
system.mem_ctrls0.wrQLenPdf::8                      2                       # What write queue length does an incoming req see
system.mem_ctrls0.wrQLenPdf::9                      2                       # What write queue length does an incoming req see
system.mem_ctrls0.wrQLenPdf::10                     2                       # What write queue length does an incoming req see
system.mem_ctrls0.wrQLenPdf::11                     2                       # What write queue length does an incoming req see
system.mem_ctrls0.wrQLenPdf::12                     2                       # What write queue length does an incoming req see
system.mem_ctrls0.wrQLenPdf::13                     2                       # What write queue length does an incoming req see
system.mem_ctrls0.wrQLenPdf::14                     2                       # What write queue length does an incoming req see
system.mem_ctrls0.wrQLenPdf::15                  2282                       # What write queue length does an incoming req see
system.mem_ctrls0.wrQLenPdf::16                  2353                       # What write queue length does an incoming req see
system.mem_ctrls0.wrQLenPdf::17                  3349                       # What write queue length does an incoming req see
system.mem_ctrls0.wrQLenPdf::18                  3350                       # What write queue length does an incoming req see
system.mem_ctrls0.wrQLenPdf::19                  3350                       # What write queue length does an incoming req see
system.mem_ctrls0.wrQLenPdf::20                  3349                       # What write queue length does an incoming req see
system.mem_ctrls0.wrQLenPdf::21                  3348                       # What write queue length does an incoming req see
system.mem_ctrls0.wrQLenPdf::22                  3349                       # What write queue length does an incoming req see
system.mem_ctrls0.wrQLenPdf::23                  3348                       # What write queue length does an incoming req see
system.mem_ctrls0.wrQLenPdf::24                  3348                       # What write queue length does an incoming req see
system.mem_ctrls0.wrQLenPdf::25                  3349                       # What write queue length does an incoming req see
system.mem_ctrls0.wrQLenPdf::26                  3351                       # What write queue length does an incoming req see
system.mem_ctrls0.wrQLenPdf::27                  3349                       # What write queue length does an incoming req see
system.mem_ctrls0.wrQLenPdf::28                  3348                       # What write queue length does an incoming req see
system.mem_ctrls0.wrQLenPdf::29                  3348                       # What write queue length does an incoming req see
system.mem_ctrls0.wrQLenPdf::30                  3348                       # What write queue length does an incoming req see
system.mem_ctrls0.wrQLenPdf::31                  3348                       # What write queue length does an incoming req see
system.mem_ctrls0.wrQLenPdf::32                  3348                       # What write queue length does an incoming req see
system.mem_ctrls0.wrQLenPdf::33                     0                       # What write queue length does an incoming req see
system.mem_ctrls0.wrQLenPdf::34                     0                       # What write queue length does an incoming req see
system.mem_ctrls0.wrQLenPdf::35                     0                       # What write queue length does an incoming req see
system.mem_ctrls0.wrQLenPdf::36                     0                       # What write queue length does an incoming req see
system.mem_ctrls0.wrQLenPdf::37                     0                       # What write queue length does an incoming req see
system.mem_ctrls0.wrQLenPdf::38                     0                       # What write queue length does an incoming req see
system.mem_ctrls0.wrQLenPdf::39                     0                       # What write queue length does an incoming req see
system.mem_ctrls0.wrQLenPdf::40                     0                       # What write queue length does an incoming req see
system.mem_ctrls0.wrQLenPdf::41                     0                       # What write queue length does an incoming req see
system.mem_ctrls0.wrQLenPdf::42                     0                       # What write queue length does an incoming req see
system.mem_ctrls0.wrQLenPdf::43                     0                       # What write queue length does an incoming req see
system.mem_ctrls0.wrQLenPdf::44                     0                       # What write queue length does an incoming req see
system.mem_ctrls0.wrQLenPdf::45                     0                       # What write queue length does an incoming req see
system.mem_ctrls0.wrQLenPdf::46                     0                       # What write queue length does an incoming req see
system.mem_ctrls0.wrQLenPdf::47                     0                       # What write queue length does an incoming req see
system.mem_ctrls0.wrQLenPdf::48                     0                       # What write queue length does an incoming req see
system.mem_ctrls0.wrQLenPdf::49                     0                       # What write queue length does an incoming req see
system.mem_ctrls0.wrQLenPdf::50                     0                       # What write queue length does an incoming req see
system.mem_ctrls0.wrQLenPdf::51                     0                       # What write queue length does an incoming req see
system.mem_ctrls0.wrQLenPdf::52                     0                       # What write queue length does an incoming req see
system.mem_ctrls0.wrQLenPdf::53                     0                       # What write queue length does an incoming req see
system.mem_ctrls0.wrQLenPdf::54                     0                       # What write queue length does an incoming req see
system.mem_ctrls0.wrQLenPdf::55                     0                       # What write queue length does an incoming req see
system.mem_ctrls0.wrQLenPdf::56                     0                       # What write queue length does an incoming req see
system.mem_ctrls0.wrQLenPdf::57                     0                       # What write queue length does an incoming req see
system.mem_ctrls0.wrQLenPdf::58                     0                       # What write queue length does an incoming req see
system.mem_ctrls0.wrQLenPdf::59                     0                       # What write queue length does an incoming req see
system.mem_ctrls0.wrQLenPdf::60                     0                       # What write queue length does an incoming req see
system.mem_ctrls0.wrQLenPdf::61                     0                       # What write queue length does an incoming req see
system.mem_ctrls0.wrQLenPdf::62                     0                       # What write queue length does an incoming req see
system.mem_ctrls0.wrQLenPdf::63                     0                       # What write queue length does an incoming req see
system.mem_ctrls0.bytesPerActivate::samples     36507207                       # Bytes accessed per row activation
system.mem_ctrls0.bytesPerActivate::mean    64.137690                       # Bytes accessed per row activation
system.mem_ctrls0.bytesPerActivate::gmean    64.080951                       # Bytes accessed per row activation
system.mem_ctrls0.bytesPerActivate::stdev     4.404810                       # Bytes accessed per row activation
system.mem_ctrls0.bytesPerActivate::0-127     36450961     99.85%     99.85% # Bytes accessed per row activation
system.mem_ctrls0.bytesPerActivate::128-255        51253      0.14%     99.99% # Bytes accessed per row activation
system.mem_ctrls0.bytesPerActivate::256-383         3648      0.01%    100.00% # Bytes accessed per row activation
system.mem_ctrls0.bytesPerActivate::384-511          924      0.00%    100.00% # Bytes accessed per row activation
system.mem_ctrls0.bytesPerActivate::512-639          253      0.00%    100.00% # Bytes accessed per row activation
system.mem_ctrls0.bytesPerActivate::640-767           92      0.00%    100.00% # Bytes accessed per row activation
system.mem_ctrls0.bytesPerActivate::768-895           38      0.00%    100.00% # Bytes accessed per row activation
system.mem_ctrls0.bytesPerActivate::896-1023           20      0.00%    100.00% # Bytes accessed per row activation
system.mem_ctrls0.bytesPerActivate::1024-1151           18      0.00%    100.00% # Bytes accessed per row activation
system.mem_ctrls0.bytesPerActivate::total     36507207                       # Bytes accessed per row activation
system.mem_ctrls0.rdPerTurnAround::samples         3349                       # Reads before turning the bus around for writes
system.mem_ctrls0.rdPerTurnAround::mean  10869.569125                       # Reads before turning the bus around for writes
system.mem_ctrls0.rdPerTurnAround::gmean   193.578043                       # Reads before turning the bus around for writes
system.mem_ctrls0.rdPerTurnAround::stdev 115896.231968                       # Reads before turning the bus around for writes
system.mem_ctrls0.rdPerTurnAround::0-131071         3303     98.63%     98.63% # Reads before turning the bus around for writes
system.mem_ctrls0.rdPerTurnAround::131072-262143           19      0.57%     99.19% # Reads before turning the bus around for writes
system.mem_ctrls0.rdPerTurnAround::262144-393215            9      0.27%     99.46% # Reads before turning the bus around for writes
system.mem_ctrls0.rdPerTurnAround::393216-524287            4      0.12%     99.58% # Reads before turning the bus around for writes
system.mem_ctrls0.rdPerTurnAround::524288-655359            2      0.06%     99.64% # Reads before turning the bus around for writes
system.mem_ctrls0.rdPerTurnAround::655360-786431            2      0.06%     99.70% # Reads before turning the bus around for writes
system.mem_ctrls0.rdPerTurnAround::786432-917503            1      0.03%     99.73% # Reads before turning the bus around for writes
system.mem_ctrls0.rdPerTurnAround::917504-1.04858e+06            1      0.03%     99.76% # Reads before turning the bus around for writes
system.mem_ctrls0.rdPerTurnAround::1.04858e+06-1.17965e+06            1      0.03%     99.79% # Reads before turning the bus around for writes
system.mem_ctrls0.rdPerTurnAround::1.17965e+06-1.31072e+06            1      0.03%     99.82% # Reads before turning the bus around for writes
system.mem_ctrls0.rdPerTurnAround::1.31072e+06-1.44179e+06            3      0.09%     99.91% # Reads before turning the bus around for writes
system.mem_ctrls0.rdPerTurnAround::1.44179e+06-1.57286e+06            1      0.03%     99.94% # Reads before turning the bus around for writes
system.mem_ctrls0.rdPerTurnAround::3.40787e+06-3.53894e+06            1      0.03%     99.97% # Reads before turning the bus around for writes
system.mem_ctrls0.rdPerTurnAround::3.93216e+06-4.06323e+06            1      0.03%    100.00% # Reads before turning the bus around for writes
system.mem_ctrls0.rdPerTurnAround::total         3349                       # Reads before turning the bus around for writes
system.mem_ctrls0.wrPerTurnAround::samples         3349                       # Writes before turning the bus around for reads
system.mem_ctrls0.wrPerTurnAround::mean     17.385488                       # Writes before turning the bus around for reads
system.mem_ctrls0.wrPerTurnAround::gmean    17.360527                       # Writes before turning the bus around for reads
system.mem_ctrls0.wrPerTurnAround::stdev     0.917983                       # Writes before turning the bus around for reads
system.mem_ctrls0.wrPerTurnAround::16            1002     29.92%     29.92% # Writes before turning the bus around for reads
system.mem_ctrls0.wrPerTurnAround::17              66      1.97%     31.89% # Writes before turning the bus around for reads
system.mem_ctrls0.wrPerTurnAround::18            2269     67.75%     99.64% # Writes before turning the bus around for reads
system.mem_ctrls0.wrPerTurnAround::19              12      0.36%    100.00% # Writes before turning the bus around for reads
system.mem_ctrls0.wrPerTurnAround::total         3349                       # Writes before turning the bus around for reads
system.mem_ctrls0.totQLat                1054962090416                       # Total ticks spent queuing
system.mem_ctrls0.totMemAccLat           1739853409166                       # Total ticks spent from burst creation until serviced by the DRAM
system.mem_ctrls0.totBusLat              182637685000                       # Total ticks spent in databus transfers
system.mem_ctrls0.avgQLat                    28881.28                       # Average queueing delay per DRAM burst
system.mem_ctrls0.avgBusLat                   5000.00                       # Average bus latency per DRAM burst
system.mem_ctrls0.avgMemAccLat               47631.28                       # Average memory access latency per DRAM burst
system.mem_ctrls0.avgRdBW                      177.79                       # Average DRAM read bandwidth in MiByte/s
system.mem_ctrls0.avgWrBW                        0.28                       # Average achieved write bandwidth in MiByte/s
system.mem_ctrls0.avgRdBWSys                   177.82                       # Average system read bandwidth in MiByte/s
system.mem_ctrls0.avgWrBWSys                     0.28                       # Average system write bandwidth in MiByte/s
system.mem_ctrls0.peakBW                     12800.00                       # Theoretical peak bandwidth in MiByte/s
system.mem_ctrls0.busUtil                        1.39                       # Data bus utilization in percentage
system.mem_ctrls0.busUtilRead                    1.39                       # Data bus utilization in percentage for reads
system.mem_ctrls0.busUtilWrite                   0.00                       # Data bus utilization in percentage for writes
system.mem_ctrls0.avgRdQLen                      1.00                       # Average read queue length when enqueuing
system.mem_ctrls0.avgWrQLen                     24.11                       # Average write queue length when enqueuing
system.mem_ctrls0.readRowHits                   67685                       # Number of row buffer hits during reads
system.mem_ctrls0.writeRowHits                  10857                       # Number of row buffer hits during writes
system.mem_ctrls0.readRowHitRate                 0.19                       # Row buffer hit rate for reads
system.mem_ctrls0.writeRowHitRate               18.64                       # Row buffer hit rate for writes
system.mem_ctrls0.avgGap                    359346.51                       # Average gap between requests
system.mem_ctrls0.pageHitRate                    0.21                       # Row buffer hit rate, read and write combined
system.mem_ctrls0_0.actEnergy            130514037780                       # Energy for activate commands per rank (pJ)
system.mem_ctrls0_0.preEnergy             69369833445                       # Energy for precharge commands per rank (pJ)
system.mem_ctrls0_0.readEnergy           130586673000                       # Energy for read commands per rank (pJ)
system.mem_ctrls0_0.writeEnergy             158040720                       # Energy for write commands per rank (pJ)
system.mem_ctrls0_0.refreshEnergy        1037994197760.000244                       # Energy for refresh commands per rank (pJ)
system.mem_ctrls0_0.actBackEnergy        552530349300                       # Energy for active background per rank (pJ)
system.mem_ctrls0_0.preBackEnergy         23556334560                       # Energy for precharge background per rank (pJ)
system.mem_ctrls0_0.actPowerDownEnergy   5147444736570                       # Energy for active power-down per rank (pJ)
system.mem_ctrls0_0.prePowerDownEnergy   225578456160                       # Energy for precharge power-down per rank (pJ)
system.mem_ctrls0_0.selfRefreshEnergy       104700750                       # Energy for self refresh per rank (pJ)
system.mem_ctrls0_0.totalEnergy          7317837742845                       # Total energy per rank (pJ)
system.mem_ctrls0_0.averagePower           556.532310                       # Core power per rank (mW)
system.mem_ctrls0_0.totalIdleTime        11876505705057                       # Total Idle time Per DRAM Rank
system.mem_ctrls0_0.memoryStateTime::IDLE  10044798590                       # Time in different power states
system.mem_ctrls0_0.memoryStateTime::REF 439084332000                       # Time in different power states
system.mem_ctrls0_0.memoryStateTime::SREF    255195163                       # Time in different power states
system.mem_ctrls0_0.memoryStateTime::PRE_PDN 587623875760                       # Time in different power states
system.mem_ctrls0_0.memoryStateTime::ACT 823354576904                       # Time in different power states
system.mem_ctrls0_0.memoryStateTime::ACT_PDN 11288627147748                       # Time in different power states
system.mem_ctrls0_1.actEnergy            130147505880                       # Energy for activate commands per rank (pJ)
system.mem_ctrls0_1.preEnergy             69175017120                       # Energy for precharge commands per rank (pJ)
system.mem_ctrls0_1.readEnergy           130219941180                       # Energy for read commands per rank (pJ)
system.mem_ctrls0_1.writeEnergy             145888560                       # Energy for write commands per rank (pJ)
system.mem_ctrls0_1.refreshEnergy        1037996656320.000244                       # Energy for refresh commands per rank (pJ)
system.mem_ctrls0_1.actBackEnergy        551283147690                       # Energy for active background per rank (pJ)
system.mem_ctrls0_1.preBackEnergy         23475791040                       # Energy for precharge background per rank (pJ)
system.mem_ctrls0_1.actPowerDownEnergy   5129177561820                       # Energy for active power-down per rank (pJ)
system.mem_ctrls0_1.prePowerDownEnergy   242076490080                       # Energy for precharge power-down per rank (pJ)
system.mem_ctrls0_1.selfRefreshEnergy       119986845                       # Energy for self refresh per rank (pJ)
system.mem_ctrls0_1.totalEnergy          7313818295085                       # Total energy per rank (pJ)
system.mem_ctrls0_1.averagePower           556.226625                       # Core power per rank (mW)
system.mem_ctrls0_1.totalIdleTime        11879259466802                       # Total Idle time Per DRAM Rank
system.mem_ctrls0_1.memoryStateTime::IDLE  10108972178                       # Time in different power states
system.mem_ctrls0_1.memoryStateTime::REF 439085450000                       # Time in different power states
system.mem_ctrls0_1.memoryStateTime::SREF    296163906                       # Time in different power states
system.mem_ctrls0_1.memoryStateTime::PRE_PDN 630644481288                       # Time in different power states
system.mem_ctrls0_1.memoryStateTime::ACT 820535022073                       # Time in different power states
system.mem_ctrls0_1.memoryStateTime::ACT_PDN 11248319836720                       # Time in different power states
system.mem_ctrls1.pwrStateResidencyTicks::UNDEFINED 175231173088665                       # Cumulative time (in ticks) in various power states
system.mem_ctrls1.bytes_read::cpu.inst            128                       # Number of bytes read from this memory
system.mem_ctrls1.bytes_read::cpu.data             64                       # Number of bytes read from this memory
system.mem_ctrls1.bytes_read::switch_cpus.inst         1088                       # Number of bytes read from this memory
system.mem_ctrls1.bytes_read::switch_cpus.data   1949412352                       # Number of bytes read from this memory
system.mem_ctrls1.bytes_read::switch_cpus_1.inst          320                       # Number of bytes read from this memory
system.mem_ctrls1.bytes_read::switch_cpus_1.data    389506560                       # Number of bytes read from this memory
system.mem_ctrls1.bytes_read::total        2338920512                       # Number of bytes read from this memory
system.mem_ctrls1.bytes_inst_read::cpu.inst          128                       # Number of instructions bytes read from this memory
system.mem_ctrls1.bytes_inst_read::switch_cpus.inst         1088                       # Number of instructions bytes read from this memory
system.mem_ctrls1.bytes_inst_read::switch_cpus_1.inst          320                       # Number of instructions bytes read from this memory
system.mem_ctrls1.bytes_inst_read::total         1536                       # Number of instructions bytes read from this memory
system.mem_ctrls1.bytes_written::writebacks      3773568                       # Number of bytes written to this memory
system.mem_ctrls1.bytes_written::total        3773568                       # Number of bytes written to this memory
system.mem_ctrls1.num_reads::cpu.inst               2                       # Number of read requests responded to by this memory
system.mem_ctrls1.num_reads::cpu.data               1                       # Number of read requests responded to by this memory
system.mem_ctrls1.num_reads::switch_cpus.inst           17                       # Number of read requests responded to by this memory
system.mem_ctrls1.num_reads::switch_cpus.data     30459568                       # Number of read requests responded to by this memory
system.mem_ctrls1.num_reads::switch_cpus_1.inst            5                       # Number of read requests responded to by this memory
system.mem_ctrls1.num_reads::switch_cpus_1.data      6086040                       # Number of read requests responded to by this memory
system.mem_ctrls1.num_reads::total           36545633                       # Number of read requests responded to by this memory
system.mem_ctrls1.num_writes::writebacks        58962                       # Number of write requests responded to by this memory
system.mem_ctrls1.num_writes::total             58962                       # Number of write requests responded to by this memory
system.mem_ctrls1.bw_read::cpu.inst                10                       # Total read bandwidth from this memory (bytes/s)
system.mem_ctrls1.bw_read::cpu.data                 5                       # Total read bandwidth from this memory (bytes/s)
system.mem_ctrls1.bw_read::switch_cpus.inst           83                       # Total read bandwidth from this memory (bytes/s)
system.mem_ctrls1.bw_read::switch_cpus.data    148255673                       # Total read bandwidth from this memory (bytes/s)
system.mem_ctrls1.bw_read::switch_cpus_1.inst           24                       # Total read bandwidth from this memory (bytes/s)
system.mem_ctrls1.bw_read::switch_cpus_1.data     29622546                       # Total read bandwidth from this memory (bytes/s)
system.mem_ctrls1.bw_read::total            177878341                       # Total read bandwidth from this memory (bytes/s)
system.mem_ctrls1.bw_inst_read::cpu.inst           10                       # Instruction read bandwidth from this memory (bytes/s)
system.mem_ctrls1.bw_inst_read::switch_cpus.inst           83                       # Instruction read bandwidth from this memory (bytes/s)
system.mem_ctrls1.bw_inst_read::switch_cpus_1.inst           24                       # Instruction read bandwidth from this memory (bytes/s)
system.mem_ctrls1.bw_inst_read::total             117                       # Instruction read bandwidth from this memory (bytes/s)
system.mem_ctrls1.bw_write::writebacks         286985                       # Write bandwidth from this memory (bytes/s)
system.mem_ctrls1.bw_write::total              286985                       # Write bandwidth from this memory (bytes/s)
system.mem_ctrls1.bw_total::writebacks         286985                       # Total bandwidth to/from this memory (bytes/s)
system.mem_ctrls1.bw_total::cpu.inst               10                       # Total bandwidth to/from this memory (bytes/s)
system.mem_ctrls1.bw_total::cpu.data                5                       # Total bandwidth to/from this memory (bytes/s)
system.mem_ctrls1.bw_total::switch_cpus.inst           83                       # Total bandwidth to/from this memory (bytes/s)
system.mem_ctrls1.bw_total::switch_cpus.data    148255673                       # Total bandwidth to/from this memory (bytes/s)
system.mem_ctrls1.bw_total::switch_cpus_1.inst           24                       # Total bandwidth to/from this memory (bytes/s)
system.mem_ctrls1.bw_total::switch_cpus_1.data     29622546                       # Total bandwidth to/from this memory (bytes/s)
system.mem_ctrls1.bw_total::total           178165326                       # Total bandwidth to/from this memory (bytes/s)
system.mem_ctrls1.readReqs                   36545633                       # Number of read requests accepted
system.mem_ctrls1.writeReqs                     58962                       # Number of write requests accepted
system.mem_ctrls1.readBursts                 36545633                       # Number of DRAM read bursts, including those serviced by the write queue
system.mem_ctrls1.writeBursts                   58962                       # Number of DRAM write bursts, including those merged in the write queue
system.mem_ctrls1.bytesReadDRAM            2338570688                       # Total number of bytes read from DRAM
system.mem_ctrls1.bytesReadWrQ                 349824                       # Total number of bytes read from write queue
system.mem_ctrls1.bytesWritten                3758336                       # Total number of bytes written to DRAM
system.mem_ctrls1.bytesReadSys             2338920512                       # Total read bytes from the system interface side
system.mem_ctrls1.bytesWrittenSys             3773568                       # Total written bytes from the system interface side
system.mem_ctrls1.servicedByWrQ                  5466                       # Number of DRAM read bursts serviced by the write queue
system.mem_ctrls1.mergedWrBursts                  220                       # Number of DRAM write bursts merged with an existing one
system.mem_ctrls1.neitherReadNorWriteReqs            0                       # Number of requests that are neither read nor write
system.mem_ctrls1.perBankRdBursts::0          2279655                       # Per bank write bursts
system.mem_ctrls1.perBankRdBursts::1          2281757                       # Per bank write bursts
system.mem_ctrls1.perBankRdBursts::2          2300368                       # Per bank write bursts
system.mem_ctrls1.perBankRdBursts::3          2292398                       # Per bank write bursts
system.mem_ctrls1.perBankRdBursts::4          2297258                       # Per bank write bursts
system.mem_ctrls1.perBankRdBursts::5          2289294                       # Per bank write bursts
system.mem_ctrls1.perBankRdBursts::6          2277890                       # Per bank write bursts
system.mem_ctrls1.perBankRdBursts::7          2287105                       # Per bank write bursts
system.mem_ctrls1.perBankRdBursts::8          2299596                       # Per bank write bursts
system.mem_ctrls1.perBankRdBursts::9          2273306                       # Per bank write bursts
system.mem_ctrls1.perBankRdBursts::10         2281328                       # Per bank write bursts
system.mem_ctrls1.perBankRdBursts::11         2287697                       # Per bank write bursts
system.mem_ctrls1.perBankRdBursts::12         2276478                       # Per bank write bursts
system.mem_ctrls1.perBankRdBursts::13         2277153                       # Per bank write bursts
system.mem_ctrls1.perBankRdBursts::14         2273007                       # Per bank write bursts
system.mem_ctrls1.perBankRdBursts::15         2265877                       # Per bank write bursts
system.mem_ctrls1.perBankWrBursts::0             3459                       # Per bank write bursts
system.mem_ctrls1.perBankWrBursts::1             3411                       # Per bank write bursts
system.mem_ctrls1.perBankWrBursts::2             3359                       # Per bank write bursts
system.mem_ctrls1.perBankWrBursts::3             4642                       # Per bank write bursts
system.mem_ctrls1.perBankWrBursts::4             4969                       # Per bank write bursts
system.mem_ctrls1.perBankWrBursts::5             3463                       # Per bank write bursts
system.mem_ctrls1.perBankWrBursts::6             3476                       # Per bank write bursts
system.mem_ctrls1.perBankWrBursts::7             3601                       # Per bank write bursts
system.mem_ctrls1.perBankWrBursts::8             3732                       # Per bank write bursts
system.mem_ctrls1.perBankWrBursts::9             3485                       # Per bank write bursts
system.mem_ctrls1.perBankWrBursts::10            3527                       # Per bank write bursts
system.mem_ctrls1.perBankWrBursts::11            3597                       # Per bank write bursts
system.mem_ctrls1.perBankWrBursts::12            3489                       # Per bank write bursts
system.mem_ctrls1.perBankWrBursts::13            3596                       # Per bank write bursts
system.mem_ctrls1.perBankWrBursts::14            3430                       # Per bank write bursts
system.mem_ctrls1.perBankWrBursts::15            3488                       # Per bank write bursts
system.mem_ctrls1.numRdRetry                        0                       # Number of times read queue was full causing retry
system.mem_ctrls1.numWrRetry                        0                       # Number of times write queue was full causing retry
system.mem_ctrls1.totGap                 13148989761087                       # Total gap between requests
system.mem_ctrls1.readPktSize::0                    0                       # Read request sizes (log2)
system.mem_ctrls1.readPktSize::1                    0                       # Read request sizes (log2)
system.mem_ctrls1.readPktSize::2                    0                       # Read request sizes (log2)
system.mem_ctrls1.readPktSize::3                    0                       # Read request sizes (log2)
system.mem_ctrls1.readPktSize::4                    0                       # Read request sizes (log2)
system.mem_ctrls1.readPktSize::5                    0                       # Read request sizes (log2)
system.mem_ctrls1.readPktSize::6             36545633                       # Read request sizes (log2)
system.mem_ctrls1.writePktSize::0                   0                       # Write request sizes (log2)
system.mem_ctrls1.writePktSize::1                   0                       # Write request sizes (log2)
system.mem_ctrls1.writePktSize::2                   0                       # Write request sizes (log2)
system.mem_ctrls1.writePktSize::3                   0                       # Write request sizes (log2)
system.mem_ctrls1.writePktSize::4                   0                       # Write request sizes (log2)
system.mem_ctrls1.writePktSize::5                   0                       # Write request sizes (log2)
system.mem_ctrls1.writePktSize::6               58962                       # Write request sizes (log2)
system.mem_ctrls1.rdQLenPdf::0               36539062                       # What read queue length does an incoming req see
system.mem_ctrls1.rdQLenPdf::1                   1063                       # What read queue length does an incoming req see
system.mem_ctrls1.rdQLenPdf::2                     39                       # What read queue length does an incoming req see
system.mem_ctrls1.rdQLenPdf::3                      3                       # What read queue length does an incoming req see
system.mem_ctrls1.rdQLenPdf::4                      0                       # What read queue length does an incoming req see
system.mem_ctrls1.rdQLenPdf::5                      0                       # What read queue length does an incoming req see
system.mem_ctrls1.rdQLenPdf::6                      0                       # What read queue length does an incoming req see
system.mem_ctrls1.rdQLenPdf::7                      0                       # What read queue length does an incoming req see
system.mem_ctrls1.rdQLenPdf::8                      0                       # What read queue length does an incoming req see
system.mem_ctrls1.rdQLenPdf::9                      0                       # What read queue length does an incoming req see
system.mem_ctrls1.rdQLenPdf::10                     0                       # What read queue length does an incoming req see
system.mem_ctrls1.rdQLenPdf::11                     0                       # What read queue length does an incoming req see
system.mem_ctrls1.rdQLenPdf::12                     0                       # What read queue length does an incoming req see
system.mem_ctrls1.rdQLenPdf::13                     0                       # What read queue length does an incoming req see
system.mem_ctrls1.rdQLenPdf::14                     0                       # What read queue length does an incoming req see
system.mem_ctrls1.rdQLenPdf::15                     0                       # What read queue length does an incoming req see
system.mem_ctrls1.rdQLenPdf::16                     0                       # What read queue length does an incoming req see
system.mem_ctrls1.rdQLenPdf::17                     0                       # What read queue length does an incoming req see
system.mem_ctrls1.rdQLenPdf::18                     0                       # What read queue length does an incoming req see
system.mem_ctrls1.rdQLenPdf::19                     0                       # What read queue length does an incoming req see
system.mem_ctrls1.rdQLenPdf::20                     0                       # What read queue length does an incoming req see
system.mem_ctrls1.rdQLenPdf::21                     0                       # What read queue length does an incoming req see
system.mem_ctrls1.rdQLenPdf::22                     0                       # What read queue length does an incoming req see
system.mem_ctrls1.rdQLenPdf::23                     0                       # What read queue length does an incoming req see
system.mem_ctrls1.rdQLenPdf::24                     0                       # What read queue length does an incoming req see
system.mem_ctrls1.rdQLenPdf::25                     0                       # What read queue length does an incoming req see
system.mem_ctrls1.rdQLenPdf::26                     0                       # What read queue length does an incoming req see
system.mem_ctrls1.rdQLenPdf::27                     0                       # What read queue length does an incoming req see
system.mem_ctrls1.rdQLenPdf::28                     0                       # What read queue length does an incoming req see
system.mem_ctrls1.rdQLenPdf::29                     0                       # What read queue length does an incoming req see
system.mem_ctrls1.rdQLenPdf::30                     0                       # What read queue length does an incoming req see
system.mem_ctrls1.rdQLenPdf::31                     0                       # What read queue length does an incoming req see
system.mem_ctrls1.wrQLenPdf::0                      2                       # What write queue length does an incoming req see
system.mem_ctrls1.wrQLenPdf::1                      2                       # What write queue length does an incoming req see
system.mem_ctrls1.wrQLenPdf::2                      2                       # What write queue length does an incoming req see
system.mem_ctrls1.wrQLenPdf::3                      2                       # What write queue length does an incoming req see
system.mem_ctrls1.wrQLenPdf::4                      2                       # What write queue length does an incoming req see
system.mem_ctrls1.wrQLenPdf::5                      2                       # What write queue length does an incoming req see
system.mem_ctrls1.wrQLenPdf::6                      2                       # What write queue length does an incoming req see
system.mem_ctrls1.wrQLenPdf::7                      2                       # What write queue length does an incoming req see
system.mem_ctrls1.wrQLenPdf::8                      2                       # What write queue length does an incoming req see
system.mem_ctrls1.wrQLenPdf::9                      2                       # What write queue length does an incoming req see
system.mem_ctrls1.wrQLenPdf::10                     2                       # What write queue length does an incoming req see
system.mem_ctrls1.wrQLenPdf::11                     2                       # What write queue length does an incoming req see
system.mem_ctrls1.wrQLenPdf::12                     2                       # What write queue length does an incoming req see
system.mem_ctrls1.wrQLenPdf::13                     2                       # What write queue length does an incoming req see
system.mem_ctrls1.wrQLenPdf::14                     2                       # What write queue length does an incoming req see
system.mem_ctrls1.wrQLenPdf::15                  2306                       # What write queue length does an incoming req see
system.mem_ctrls1.wrQLenPdf::16                  2374                       # What write queue length does an incoming req see
system.mem_ctrls1.wrQLenPdf::17                  3374                       # What write queue length does an incoming req see
system.mem_ctrls1.wrQLenPdf::18                  3381                       # What write queue length does an incoming req see
system.mem_ctrls1.wrQLenPdf::19                  3379                       # What write queue length does an incoming req see
system.mem_ctrls1.wrQLenPdf::20                  3378                       # What write queue length does an incoming req see
system.mem_ctrls1.wrQLenPdf::21                  3378                       # What write queue length does an incoming req see
system.mem_ctrls1.wrQLenPdf::22                  3378                       # What write queue length does an incoming req see
system.mem_ctrls1.wrQLenPdf::23                  3377                       # What write queue length does an incoming req see
system.mem_ctrls1.wrQLenPdf::24                  3376                       # What write queue length does an incoming req see
system.mem_ctrls1.wrQLenPdf::25                  3377                       # What write queue length does an incoming req see
system.mem_ctrls1.wrQLenPdf::26                  3378                       # What write queue length does an incoming req see
system.mem_ctrls1.wrQLenPdf::27                  3376                       # What write queue length does an incoming req see
system.mem_ctrls1.wrQLenPdf::28                  3376                       # What write queue length does an incoming req see
system.mem_ctrls1.wrQLenPdf::29                  3376                       # What write queue length does an incoming req see
system.mem_ctrls1.wrQLenPdf::30                  3376                       # What write queue length does an incoming req see
system.mem_ctrls1.wrQLenPdf::31                  3376                       # What write queue length does an incoming req see
system.mem_ctrls1.wrQLenPdf::32                  3376                       # What write queue length does an incoming req see
system.mem_ctrls1.wrQLenPdf::33                     0                       # What write queue length does an incoming req see
system.mem_ctrls1.wrQLenPdf::34                     0                       # What write queue length does an incoming req see
system.mem_ctrls1.wrQLenPdf::35                     0                       # What write queue length does an incoming req see
system.mem_ctrls1.wrQLenPdf::36                     0                       # What write queue length does an incoming req see
system.mem_ctrls1.wrQLenPdf::37                     0                       # What write queue length does an incoming req see
system.mem_ctrls1.wrQLenPdf::38                     0                       # What write queue length does an incoming req see
system.mem_ctrls1.wrQLenPdf::39                     0                       # What write queue length does an incoming req see
system.mem_ctrls1.wrQLenPdf::40                     0                       # What write queue length does an incoming req see
system.mem_ctrls1.wrQLenPdf::41                     0                       # What write queue length does an incoming req see
system.mem_ctrls1.wrQLenPdf::42                     0                       # What write queue length does an incoming req see
system.mem_ctrls1.wrQLenPdf::43                     0                       # What write queue length does an incoming req see
system.mem_ctrls1.wrQLenPdf::44                     0                       # What write queue length does an incoming req see
system.mem_ctrls1.wrQLenPdf::45                     0                       # What write queue length does an incoming req see
system.mem_ctrls1.wrQLenPdf::46                     0                       # What write queue length does an incoming req see
system.mem_ctrls1.wrQLenPdf::47                     0                       # What write queue length does an incoming req see
system.mem_ctrls1.wrQLenPdf::48                     0                       # What write queue length does an incoming req see
system.mem_ctrls1.wrQLenPdf::49                     0                       # What write queue length does an incoming req see
system.mem_ctrls1.wrQLenPdf::50                     0                       # What write queue length does an incoming req see
system.mem_ctrls1.wrQLenPdf::51                     0                       # What write queue length does an incoming req see
system.mem_ctrls1.wrQLenPdf::52                     0                       # What write queue length does an incoming req see
system.mem_ctrls1.wrQLenPdf::53                     0                       # What write queue length does an incoming req see
system.mem_ctrls1.wrQLenPdf::54                     0                       # What write queue length does an incoming req see
system.mem_ctrls1.wrQLenPdf::55                     0                       # What write queue length does an incoming req see
system.mem_ctrls1.wrQLenPdf::56                     0                       # What write queue length does an incoming req see
system.mem_ctrls1.wrQLenPdf::57                     0                       # What write queue length does an incoming req see
system.mem_ctrls1.wrQLenPdf::58                     0                       # What write queue length does an incoming req see
system.mem_ctrls1.wrQLenPdf::59                     0                       # What write queue length does an incoming req see
system.mem_ctrls1.wrQLenPdf::60                     0                       # What write queue length does an incoming req see
system.mem_ctrls1.wrQLenPdf::61                     0                       # What write queue length does an incoming req see
system.mem_ctrls1.wrQLenPdf::62                     0                       # What write queue length does an incoming req see
system.mem_ctrls1.wrQLenPdf::63                     0                       # What write queue length does an incoming req see
system.mem_ctrls1.bytesPerActivate::samples     36520046                       # Bytes accessed per row activation
system.mem_ctrls1.bytesPerActivate::mean    64.138161                       # Bytes accessed per row activation
system.mem_ctrls1.bytesPerActivate::gmean    64.081106                       # Bytes accessed per row activation
system.mem_ctrls1.bytesPerActivate::stdev     4.418030                       # Bytes accessed per row activation
system.mem_ctrls1.bytesPerActivate::0-127     36463751     99.85%     99.85% # Bytes accessed per row activation
system.mem_ctrls1.bytesPerActivate::128-255        51229      0.14%     99.99% # Bytes accessed per row activation
system.mem_ctrls1.bytesPerActivate::256-383         3701      0.01%    100.00% # Bytes accessed per row activation
system.mem_ctrls1.bytesPerActivate::384-511          890      0.00%    100.00% # Bytes accessed per row activation
system.mem_ctrls1.bytesPerActivate::512-639          297      0.00%    100.00% # Bytes accessed per row activation
system.mem_ctrls1.bytesPerActivate::640-767          111      0.00%    100.00% # Bytes accessed per row activation
system.mem_ctrls1.bytesPerActivate::768-895           41      0.00%    100.00% # Bytes accessed per row activation
system.mem_ctrls1.bytesPerActivate::896-1023           18      0.00%    100.00% # Bytes accessed per row activation
system.mem_ctrls1.bytesPerActivate::1024-1151            8      0.00%    100.00% # Bytes accessed per row activation
system.mem_ctrls1.bytesPerActivate::total     36520046                       # Bytes accessed per row activation
system.mem_ctrls1.rdPerTurnAround::samples         3377                       # Reads before turning the bus around for writes
system.mem_ctrls1.rdPerTurnAround::mean  10796.816701                       # Reads before turning the bus around for writes
system.mem_ctrls1.rdPerTurnAround::gmean   198.283781                       # Reads before turning the bus around for writes
system.mem_ctrls1.rdPerTurnAround::stdev 106797.586796                       # Reads before turning the bus around for writes
system.mem_ctrls1.rdPerTurnAround::0-131071         3330     98.61%     98.61% # Reads before turning the bus around for writes
system.mem_ctrls1.rdPerTurnAround::131072-262143           15      0.44%     99.05% # Reads before turning the bus around for writes
system.mem_ctrls1.rdPerTurnAround::262144-393215           15      0.44%     99.50% # Reads before turning the bus around for writes
system.mem_ctrls1.rdPerTurnAround::393216-524287            4      0.12%     99.62% # Reads before turning the bus around for writes
system.mem_ctrls1.rdPerTurnAround::524288-655359            1      0.03%     99.64% # Reads before turning the bus around for writes
system.mem_ctrls1.rdPerTurnAround::655360-786431            1      0.03%     99.67% # Reads before turning the bus around for writes
system.mem_ctrls1.rdPerTurnAround::786432-917503            1      0.03%     99.70% # Reads before turning the bus around for writes
system.mem_ctrls1.rdPerTurnAround::917504-1.04858e+06            2      0.06%     99.76% # Reads before turning the bus around for writes
system.mem_ctrls1.rdPerTurnAround::1.04858e+06-1.17965e+06            1      0.03%     99.79% # Reads before turning the bus around for writes
system.mem_ctrls1.rdPerTurnAround::1.17965e+06-1.31072e+06            1      0.03%     99.82% # Reads before turning the bus around for writes
system.mem_ctrls1.rdPerTurnAround::1.31072e+06-1.44179e+06            1      0.03%     99.85% # Reads before turning the bus around for writes
system.mem_ctrls1.rdPerTurnAround::1.44179e+06-1.57286e+06            1      0.03%     99.88% # Reads before turning the bus around for writes
system.mem_ctrls1.rdPerTurnAround::1.83501e+06-1.96608e+06            1      0.03%     99.91% # Reads before turning the bus around for writes
system.mem_ctrls1.rdPerTurnAround::2.09715e+06-2.22822e+06            1      0.03%     99.94% # Reads before turning the bus around for writes
system.mem_ctrls1.rdPerTurnAround::2.22822e+06-2.3593e+06            1      0.03%     99.97% # Reads before turning the bus around for writes
system.mem_ctrls1.rdPerTurnAround::3.40787e+06-3.53894e+06            1      0.03%    100.00% # Reads before turning the bus around for writes
system.mem_ctrls1.rdPerTurnAround::total         3377                       # Reads before turning the bus around for writes
system.mem_ctrls1.wrPerTurnAround::samples         3377                       # Writes before turning the bus around for reads
system.mem_ctrls1.wrPerTurnAround::mean     17.389399                       # Writes before turning the bus around for reads
system.mem_ctrls1.wrPerTurnAround::gmean    17.364430                       # Writes before turning the bus around for reads
system.mem_ctrls1.wrPerTurnAround::stdev     0.918307                       # Writes before turning the bus around for reads
system.mem_ctrls1.wrPerTurnAround::16            1005     29.76%     29.76% # Writes before turning the bus around for reads
system.mem_ctrls1.wrPerTurnAround::17              67      1.98%     31.74% # Writes before turning the bus around for reads
system.mem_ctrls1.wrPerTurnAround::18            2292     67.87%     99.62% # Writes before turning the bus around for reads
system.mem_ctrls1.wrPerTurnAround::19              11      0.33%     99.94% # Writes before turning the bus around for reads
system.mem_ctrls1.wrPerTurnAround::20               2      0.06%    100.00% # Writes before turning the bus around for reads
system.mem_ctrls1.wrPerTurnAround::total         3377                       # Writes before turning the bus around for reads
system.mem_ctrls1.totQLat                1101732110679                       # Total ticks spent queuing
system.mem_ctrls1.totMemAccLat           1786860241929                       # Total ticks spent from burst creation until serviced by the DRAM
system.mem_ctrls1.totBusLat              182700835000                       # Total ticks spent in databus transfers
system.mem_ctrls1.avgQLat                    30151.26                       # Average queueing delay per DRAM burst
system.mem_ctrls1.avgBusLat                   5000.00                       # Average bus latency per DRAM burst
system.mem_ctrls1.avgMemAccLat               48901.26                       # Average memory access latency per DRAM burst
system.mem_ctrls1.avgRdBW                      177.85                       # Average DRAM read bandwidth in MiByte/s
system.mem_ctrls1.avgWrBW                        0.29                       # Average achieved write bandwidth in MiByte/s
system.mem_ctrls1.avgRdBWSys                   177.88                       # Average system read bandwidth in MiByte/s
system.mem_ctrls1.avgWrBWSys                     0.29                       # Average system write bandwidth in MiByte/s
system.mem_ctrls1.peakBW                     12800.00                       # Theoretical peak bandwidth in MiByte/s
system.mem_ctrls1.busUtil                        1.39                       # Data bus utilization in percentage
system.mem_ctrls1.busUtilRead                    1.39                       # Data bus utilization in percentage for reads
system.mem_ctrls1.busUtilWrite                   0.00                       # Data bus utilization in percentage for writes
system.mem_ctrls1.avgRdQLen                      1.00                       # Average read queue length when enqueuing
system.mem_ctrls1.avgWrQLen                     24.09                       # Average write queue length when enqueuing
system.mem_ctrls1.readRowHits                   67980                       # Number of row buffer hits during reads
system.mem_ctrls1.writeRowHits                  10858                       # Number of row buffer hits during writes
system.mem_ctrls1.readRowHitRate                 0.19                       # Row buffer hit rate for reads
system.mem_ctrls1.writeRowHitRate               18.48                       # Row buffer hit rate for writes
system.mem_ctrls1.avgGap                    359216.92                       # Average gap between requests
system.mem_ctrls1.pageHitRate                    0.22                       # Row buffer hit rate, read and write combined
system.mem_ctrls1_0.actEnergy            130631640720                       # Energy for activate commands per rank (pJ)
system.mem_ctrls1_0.preEnergy             69432344685                       # Energy for precharge commands per rank (pJ)
system.mem_ctrls1_0.readEnergy           130702876500                       # Energy for read commands per rank (pJ)
system.mem_ctrls1_0.writeEnergy             158583600                       # Energy for write commands per rank (pJ)
system.mem_ctrls1_0.refreshEnergy        1037997885600.000244                       # Energy for refresh commands per rank (pJ)
system.mem_ctrls1_0.actBackEnergy        551964030360                       # Energy for active background per rank (pJ)
system.mem_ctrls1_0.preBackEnergy         23480166720                       # Energy for precharge background per rank (pJ)
system.mem_ctrls1_0.actPowerDownEnergy   5127978425460                       # Energy for active power-down per rank (pJ)
system.mem_ctrls1_0.prePowerDownEnergy   242495163360                       # Energy for precharge power-down per rank (pJ)
system.mem_ctrls1_0.selfRefreshEnergy       132212025                       # Energy for self refresh per rank (pJ)
system.mem_ctrls1_0.totalEnergy          7314973625040                       # Total energy per rank (pJ)
system.mem_ctrls1_0.averagePower           556.314490                       # Core power per rank (mW)
system.mem_ctrls1_0.totalIdleTime        11876102356304                       # Total Idle time Per DRAM Rank
system.mem_ctrls1_0.memoryStateTime::IDLE   9949834185                       # Time in different power states
system.mem_ctrls1_0.memoryStateTime::REF 439086012000                       # Time in different power states
system.mem_ctrls1_0.memoryStateTime::SREF    331003905                       # Time in different power states
system.mem_ctrls1_0.memoryStateTime::PRE_PDN 631041875857                       # Time in different power states
system.mem_ctrls1_0.memoryStateTime::ACT 823850277426                       # Time in different power states
system.mem_ctrls1_0.memoryStateTime::ACT_PDN 11244730922792                       # Time in different power states
system.mem_ctrls1_1.actEnergy            130121537700                       # Energy for activate commands per rank (pJ)
system.mem_ctrls1_1.preEnergy             69161229885                       # Energy for precharge commands per rank (pJ)
system.mem_ctrls1_1.readEnergy           130193915880                       # Energy for read commands per rank (pJ)
system.mem_ctrls1_1.writeEnergy             147955680                       # Energy for write commands per rank (pJ)
system.mem_ctrls1_1.refreshEnergy        1037989895280.000244                       # Energy for refresh commands per rank (pJ)
system.mem_ctrls1_1.actBackEnergy        550512607440                       # Energy for active background per rank (pJ)
system.mem_ctrls1_1.preBackEnergy         23452764000                       # Energy for precharge background per rank (pJ)
system.mem_ctrls1_1.actPowerDownEnergy   5151092564430                       # Energy for active power-down per rank (pJ)
system.mem_ctrls1_1.prePowerDownEnergy   224283794400                       # Energy for precharge power-down per rank (pJ)
system.mem_ctrls1_1.selfRefreshEnergy       121149780                       # Energy for self refresh per rank (pJ)
system.mem_ctrls1_1.totalEnergy          7317077712615                       # Total energy per rank (pJ)
system.mem_ctrls1_1.averagePower           556.474509                       # Core power per rank (mW)
system.mem_ctrls1_1.totalIdleTime        11879592207230                       # Total Idle time Per DRAM Rank
system.mem_ctrls1_1.memoryStateTime::IDLE   9949903284                       # Time in different power states
system.mem_ctrls1_1.memoryStateTime::REF 439082530000                       # Time in different power states
system.mem_ctrls1_1.memoryStateTime::SREF    321863654                       # Time in different power states
system.mem_ctrls1_1.memoryStateTime::PRE_PDN 583645259899                       # Time in different power states
system.mem_ctrls1_1.memoryStateTime::ACT 820365173635                       # Time in different power states
system.mem_ctrls1_1.memoryStateTime::ACT_PDN 11295625195693                       # Time in different power states
system.pwrStateResidencyTicks::UNDEFINED 175231173088665                       # Cumulative time (in ticks) in various power states
system.cpu.branchPred.lookups                      12                       # Number of BP lookups
system.cpu.branchPred.condPredicted                12                       # Number of conditional branches predicted
system.cpu.branchPred.condIncorrect                 4                       # Number of conditional branches incorrect
system.cpu.branchPred.BTBLookups                    0                       # Number of BTB lookups
system.cpu.branchPred.BTBHits                       0                       # Number of BTB hits
system.cpu.branchPred.BTBCorrect                    0                       # Number of correct BTB predictions (this stat may not work properly.
system.cpu.branchPred.BTBHitPct                   nan                       # BTB Hit Percentage
system.cpu.branchPred.usedRAS                       0                       # Number of times the RAS was used to get a target.
system.cpu.branchPred.RASInCorrect                  0                       # Number of incorrect RAS predictions.
system.cpu.branchPred.indirectLookups               0                       # Number of indirect predictor lookups.
system.cpu.branchPred.indirectHits                  0                       # Number of indirect target hits.
system.cpu.branchPred.indirectMisses                0                       # Number of indirect misses.
system.cpu.branchPredindirectMispredicted            0                       # Number of mispredicted indirect branches.
system.cpu_voltage_domain.voltage                   1                       # Voltage in Volts
system.cpu_clk_domain.clock                       333                       # Clock period in ticks
system.cpu.dtb.fetch_hits                           0                       # ITB hits
system.cpu.dtb.fetch_misses                         0                       # ITB misses
system.cpu.dtb.fetch_acv                            0                       # ITB acv
system.cpu.dtb.fetch_accesses                       0                       # ITB accesses
system.cpu.dtb.read_hits                            1                       # DTB read hits
system.cpu.dtb.read_misses                         11                       # DTB read misses
system.cpu.dtb.read_acv                             0                       # DTB read access violations
system.cpu.dtb.read_accesses                       12                       # DTB read accesses
system.cpu.dtb.write_hits                           0                       # DTB write hits
system.cpu.dtb.write_misses                         0                       # DTB write misses
system.cpu.dtb.write_acv                            0                       # DTB write access violations
system.cpu.dtb.write_accesses                       0                       # DTB write accesses
system.cpu.dtb.data_hits                            1                       # DTB hits
system.cpu.dtb.data_misses                         11                       # DTB misses
system.cpu.dtb.data_acv                             0                       # DTB access violations
system.cpu.dtb.data_accesses                       12                       # DTB accesses
system.cpu.itb.fetch_hits                          12                       # ITB hits
system.cpu.itb.fetch_misses                         0                       # ITB misses
system.cpu.itb.fetch_acv                            0                       # ITB acv
system.cpu.itb.fetch_accesses                      12                       # ITB accesses
system.cpu.itb.read_hits                            0                       # DTB read hits
system.cpu.itb.read_misses                          0                       # DTB read misses
system.cpu.itb.read_acv                             0                       # DTB read access violations
system.cpu.itb.read_accesses                        0                       # DTB read accesses
system.cpu.itb.write_hits                           0                       # DTB write hits
system.cpu.itb.write_misses                         0                       # DTB write misses
system.cpu.itb.write_acv                            0                       # DTB write access violations
system.cpu.itb.write_accesses                       0                       # DTB write accesses
system.cpu.itb.data_hits                            0                       # DTB hits
system.cpu.itb.data_misses                          0                       # DTB misses
system.cpu.itb.data_acv                             0                       # DTB access violations
system.cpu.itb.data_accesses                        0                       # DTB accesses
system.cpu.workload.num_syscalls                    0                       # Number of system calls
system.cpu.pwrStateResidencyTicks::ON    13148989926165                       # Cumulative time (in ticks) in various power states
system.cpu.numCycles                              734                       # number of cpu cycles simulated
system.cpu.numWorkItemsStarted                      0                       # number of work items this cpu started
[...]
system.switch_cpus_1.iq.FU_type_0::total   1853083603                       # Type of FU issued
system.switch_cpus_1.iq.rate                 0.264144                       # Inst issue rate
system.switch_cpus_1.iq.fu_busy_cnt              4348                       # FU busy when requested
system.switch_cpus_1.iq.fu_busy_rate         0.000002                       # FU busy rate (busy events/executed inst)
system.switch_cpus_1.iq.int_inst_queue_reads  10721607834                       # Number of integer instruction queue reads
system.switch_cpus_1.iq.int_inst_queue_writes   6295258902                       # Number of integer instruction queue writes
system.switch_cpus_1.iq.int_inst_queue_wakeup_accesses   1164745693                       # Number of integer instruction queue wakeup accesses
system.switch_cpus_1.iq.fp_inst_queue_reads            0                       # Number of floating instruction queue reads
system.switch_cpus_1.iq.fp_inst_queue_writes            0                       # Number of floating instruction queue writes
system.switch_cpus_1.iq.fp_inst_queue_wakeup_accesses            0                       # Number of floating instruction queue wakeup accesses
system.switch_cpus_1.iq.int_alu_accesses   1853087951                       # Number of integer alu accesses
system.switch_cpus_1.iq.fp_alu_accesses             0                       # Number of floating point alu accesses
system.switch_cpus_1.iew.lsq.thread0.forwLoads          940                       # Number of loads that had data forwarded from stores
system.switch_cpus_1.iew.lsq.thread0.invAddrLoads            0                       # Number of loads ignored due to an invalid address
system.switch_cpus_1.iew.lsq.thread0.squashedLoads   1003998812                       # Number of loads squashed
system.switch_cpus_1.iew.lsq.thread0.ignoredResponses           16                       # Number of memory responses ignored because the instruction is squashed
system.switch_cpus_1.iew.lsq.thread0.memOrderViolation           34                       # Number of memory ordering violations
system.switch_cpus_1.iew.lsq.thread0.squashedStores       136189                       # Number of stores squashed
system.switch_cpus_1.iew.lsq.thread0.invAddrSwpfs            0                       # Number of software prefetches ignored due to an invalid address
system.switch_cpus_1.iew.lsq.thread0.blockedLoads            0                       # Number of blocked loads due to partial load-store forwarding
system.switch_cpus_1.iew.lsq.thread0.rescheduledLoads            0                       # Number of loads that were rescheduled
system.switch_cpus_1.iew.lsq.thread0.cacheBlocked         6874                       # Number of times an access to memory failed due to the cache being blocked
system.switch_cpus_1.iew.iewIdleCycles              0                       # Number of cycles IEW is idle
system.switch_cpus_1.iew.iewSquashCycles     33186792                       # Number of cycles IEW is squashing
system.switch_cpus_1.iew.iewBlockCycles    5879372535                       # Number of cycles IEW is blocking
system.switch_cpus_1.iew.iewUnblockCycles     40733845                       # Number of cycles IEW is unblocking
system.switch_cpus_1.iew.iewDispatchedInsts   3247648102                       # Number of instructions dispatched to IQ
system.switch_cpus_1.iew.iewDispSquashedInsts         4445                       # Number of squashed instructions skipped by dispatch
system.switch_cpus_1.iew.iewDispLoadInsts   1068252993                       # Number of dispatched load instructions
system.switch_cpus_1.iew.iewDispStoreInsts       148516                       # Number of dispatched store instructions
system.switch_cpus_1.iew.iewDispNonSpecInsts            0                       # Number of dispatched non-speculative instructions
system.switch_cpus_1.iew.iewIQFullEvents     19172321                       # Number of times the IQ has become full, causing a stall
system.switch_cpus_1.iew.iewLSQFullEvents      3699244                       # Number of times the LSQ has become full, causing a stall
system.switch_cpus_1.iew.memOrderViolationEvents           34                       # Number of memory order violations
system.switch_cpus_1.iew.predictedTakenIncorrect      1685537                       # Number of branches that were predicted taken incorrectly
system.switch_cpus_1.iew.predictedNotTakenIncorrect      2826044                       # Number of branches that were predicted not taken incorrectly
system.switch_cpus_1.iew.branchMispredicts      4511581                       # Number of branch mispredicts detected at execute
system.switch_cpus_1.iew.iewExecutedInsts   1848897830                       # Number of executed instructions
system.switch_cpus_1.iew.iewExecLoadInsts    748484849                       # Number of load instructions executed
system.switch_cpus_1.iew.iewExecSquashedInsts      4185771                       # Number of squashed instructions skipped in execute
system.switch_cpus_1.iew.exec_swp                   0                       # number of swp insts executed
system.switch_cpus_1.iew.exec_nop               18619                       # number of nop insts executed
system.switch_cpus_1.iew.exec_refs          748507281                       # number of memory reference insts executed
system.switch_cpus_1.iew.exec_branches      219696136                       # Number of branches executed
system.switch_cpus_1.iew.exec_stores            22432                       # Number of stores executed
system.switch_cpus_1.iew.exec_rate           0.263547                       # Inst execution rate
system.switch_cpus_1.iew.wb_sent           1847983763                       # cumulative count of insts sent to commit
system.switch_cpus_1.iew.wb_count          1164745693                       # cumulative count of insts written-back
system.switch_cpus_1.iew.wb_producers       670509796                       # num instructions producing a value
system.switch_cpus_1.iew.wb_consumers       923383957                       # num instructions consuming a value
system.switch_cpus_1.iew.wb_rate             0.166026                       # insts written-back per cycle
system.switch_cpus_1.iew.wb_fanout           0.726144                       # average fanout of values written-back
system.switch_cpus_1.commit.commitSquashedInsts   2815845774                       # The number of squashed insts skipped by commit
system.switch_cpus_1.commit.branchMispredicts      4333917                       # The number of times a branch was mispredicted
system.switch_cpus_1.commit.committed_per_cycle::samples   6650860624                       # Number of insts commited each cycle
system.switch_cpus_1.commit.committed_per_cycle::mean     0.030072                       # Number of insts commited each cycle
system.switch_cpus_1.commit.committed_per_cycle::stdev     0.324756                       # Number of insts commited each cycle
system.switch_cpus_1.commit.committed_per_cycle::underflows            0      0.00%      0.00% # Number of insts commited each cycle
system.switch_cpus_1.commit.committed_per_cycle::0   6548530766     98.46%     98.46% # Number of insts commited each cycle
system.switch_cpus_1.commit.committed_per_cycle::1     55554400      0.84%     99.30% # Number of insts commited each cycle
system.switch_cpus_1.commit.committed_per_cycle::2     32104133      0.48%     99.78% # Number of insts commited each cycle
system.switch_cpus_1.commit.committed_per_cycle::3      6061852      0.09%     99.87% # Number of insts commited each cycle
system.switch_cpus_1.commit.committed_per_cycle::4      1675193      0.03%     99.90% # Number of insts commited each cycle
system.switch_cpus_1.commit.committed_per_cycle::5        24905      0.00%     99.90% # Number of insts commited each cycle
system.switch_cpus_1.commit.committed_per_cycle::6         3215      0.00%     99.90% # Number of insts commited each cycle
system.switch_cpus_1.commit.committed_per_cycle::7        40360      0.00%     99.90% # Number of insts commited each cycle
system.switch_cpus_1.commit.committed_per_cycle::8      6865800      0.10%    100.00% # Number of insts commited each cycle
system.switch_cpus_1.commit.committed_per_cycle::overflows            0      0.00%    100.00% # Number of insts commited each cycle
system.switch_cpus_1.commit.committed_per_cycle::min_value            0                       # Number of insts commited each cycle
system.switch_cpus_1.commit.committed_per_cycle::max_value            8                       # Number of insts commited each cycle
system.switch_cpus_1.commit.committed_per_cycle::total   6650860624                       # Number of insts commited each cycle
system.switch_cpus_1.commit.committedInsts    200001729                       # Number of instructions committed
system.switch_cpus_1.commit.committedOps    200001729                       # Number of ops (including micro ops) committed
system.switch_cpus_1.commit.swp_count               0                       # Number of s/w prefetches committed
system.switch_cpus_1.commit.refs             64266478                       # Number of memory references committed
system.switch_cpus_1.commit.loads            64254151                       # Number of loads committed
system.switch_cpus_1.commit.membars                 0                       # Number of memory barriers committed
system.switch_cpus_1.commit.branches         49624817                       # Number of branches committed
system.switch_cpus_1.commit.fp_insts                0                       # Number of committed floating point instructions.
system.switch_cpus_1.commit.int_insts       199961763                       # Number of committed integer instructions.
system.switch_cpus_1.commit.function_calls          438                       # Number of function calls committed.
system.switch_cpus_1.commit.op_class_0::No_OpClass         1722      0.00%      0.00% # Class of committed instruction
system.switch_cpus_1.commit.op_class_0::IntAlu    135733506     67.87%     67.87% # Class of committed instruction
system.switch_cpus_1.commit.op_class_0::IntMult           23      0.00%     67.87% # Class of committed instruction
system.switch_cpus_1.commit.op_class_0::IntDiv            0      0.00%     67.87% # Class of committed instruction
system.switch_cpus_1.commit.op_class_0::FloatAdd            0      0.00%     67.87% # Class of committed instruction
system.switch_cpus_1.commit.op_class_0::FloatCmp            0      0.00%     67.87% # Class of committed instruction
system.switch_cpus_1.commit.op_class_0::FloatCvt            0      0.00%     67.87% # Class of committed instruction
system.switch_cpus_1.commit.op_class_0::FloatMult            0      0.00%     67.87% # Class of committed instruction
system.switch_cpus_1.commit.op_class_0::FloatMultAcc            0      0.00%     67.87% # Class of committed instruction
system.switch_cpus_1.commit.op_class_0::FloatDiv            0      0.00%     67.87% # Class of committed instruction
system.switch_cpus_1.commit.op_class_0::FloatMisc            0      0.00%     67.87% # Class of committed instruction
system.switch_cpus_1.commit.op_class_0::FloatSqrt            0      0.00%     67.87% # Class of committed instruction
system.switch_cpus_1.commit.op_class_0::SimdAdd            0      0.00%     67.87% # Class of committed instruction
system.switch_cpus_1.commit.op_class_0::SimdAddAcc            0      0.00%     67.87% # Class of committed instruction
system.switch_cpus_1.commit.op_class_0::SimdAlu            0      0.00%     67.87% # Class of committed instruction
system.switch_cpus_1.commit.op_class_0::SimdCmp            0      0.00%     67.87% # Class of committed instruction
system.switch_cpus_1.commit.op_class_0::SimdCvt            0      0.00%     67.87% # Class of committed instruction
system.switch_cpus_1.commit.op_class_0::SimdMisc            0      0.00%     67.87% # Class of committed instruction
system.switch_cpus_1.commit.op_class_0::SimdMult            0      0.00%     67.87% # Class of committed instruction
system.switch_cpus_1.commit.op_class_0::SimdMultAcc            0      0.00%     67.87% # Class of committed instruction
system.switch_cpus_1.commit.op_class_0::SimdShift            0      0.00%     67.87% # Class of committed instruction
system.switch_cpus_1.commit.op_class_0::SimdShiftAcc            0      0.00%     67.87% # Class of committed instruction
system.switch_cpus_1.commit.op_class_0::SimdSqrt            0      0.00%     67.87% # Class of committed instruction
system.switch_cpus_1.commit.op_class_0::SimdFloatAdd            0      0.00%     67.87% # Class of committed instruction
system.switch_cpus_1.commit.op_class_0::SimdFloatAlu            0      0.00%     67.87% # Class of committed instruction
system.switch_cpus_1.commit.op_class_0::SimdFloatCmp            0      0.00%     67.87% # Class of committed instruction
system.switch_cpus_1.commit.op_class_0::SimdFloatCvt            0      0.00%     67.87% # Class of committed instruction
system.switch_cpus_1.commit.op_class_0::SimdFloatDiv            0      0.00%     67.87% # Class of committed instruction
system.switch_cpus_1.commit.op_class_0::SimdFloatMisc            0      0.00%     67.87% # Class of committed instruction
system.switch_cpus_1.commit.op_class_0::SimdFloatMult            0      0.00%     67.87% # Class of committed instruction
system.switch_cpus_1.commit.op_class_0::SimdFloatMultAcc            0      0.00%     67.87% # Class of committed instruction
system.switch_cpus_1.commit.op_class_0::SimdFloatSqrt            0      0.00%     67.87% # Class of committed instruction
system.switch_cpus_1.commit.op_class_0::MemRead     64254151     32.13%     99.99% # Class of committed instruction
system.switch_cpus_1.commit.op_class_0::MemWrite        12327      0.01%    100.00% # Class of committed instruction
system.switch_cpus_1.commit.op_class_0::FloatMemRead            0      0.00%    100.00% # Class of committed instruction
system.switch_cpus_1.commit.op_class_0::FloatMemWrite            0      0.00%    100.00% # Class of committed instruction
system.switch_cpus_1.commit.op_class_0::IprAccess            0      0.00%    100.00% # Class of committed instruction
system.switch_cpus_1.commit.op_class_0::InstPrefetch            0      0.00%    100.00% # Class of committed instruction
system.switch_cpus_1.commit.op_class_0::total    200001729                       # Class of committed instruction
system.switch_cpus_1.commit.bw_lim_events      6865800                       # number cycles where commit BW limit reached
system.switch_cpus_1.rob.rob_reads         9284755316                       # The number of ROB reads
system.switch_cpus_1.rob.rob_writes        6396270348                       # The number of ROB writes
system.switch_cpus_1.timesIdled                    11                       # Number of times that the entire CPU went into an idle state and unscheduled itself
system.switch_cpus_1.idleCycles                   883                       # Total number of cycles that the CPU has spent unscheduled due to idling
system.switch_cpus_1.committedInsts         200000007                       # Number of Instructions Simulated
system.switch_cpus_1.committedOps           200000007                       # Number of Ops (including micro ops) Simulated
system.switch_cpus_1.cpi                    35.077182                       # CPI: Cycles Per Instruction
system.switch_cpus_1.cpi_total              35.077182                       # CPI: Total CPI of All Threads
system.switch_cpus_1.ipc                     0.028509                       # IPC: Instructions Per Cycle
system.switch_cpus_1.ipc_total               0.028509                       # IPC: Total IPC of All Threads
system.switch_cpus_1.int_regfile_reads     2717073743                       # number of integer regfile reads
system.switch_cpus_1.int_regfile_writes     945056568                       # number of integer regfile writes
system.switch_cpus_1.fp_regfile_writes             32                       # number of floating regfile writes
system.tol3bus.snoop_filter.tot_requests    284833265                       # Total number of requests made to the snoop filter.
system.tol3bus.snoop_filter.hit_single_requests    142414676                       # Number of requests hitting in the snoop filter with a single holder of the requested data.
system.tol3bus.snoop_filter.hit_multi_requests            0                       # Number of requests hitting in the snoop filter with multiple (>1) holders of the requested data.
system.tol3bus.snoop_filter.tot_snoops          39564                       # Total number of snoops made to the snoop filter.
system.tol3bus.snoop_filter.hit_single_snoops        39564                       # Number of snoops hitting in the snoop filter with a single holder of the requested data.
system.tol3bus.snoop_filter.hit_multi_snoops            0                       # Number of snoops hitting in the snoop filter with multiple (>1) holders of the requested data.
system.tol3bus.pwrStateResidencyTicks::UNDEFINED 175231173088665                       # Cumulative time (in ticks) in various power states
system.tol3bus.trans_dist::ReadResp         142404731                       # Transaction distribution
system.tol3bus.trans_dist::WritebackDirty      3415411                       # Transaction distribution
system.tol3bus.trans_dist::CleanEvict       212012534                       # Transaction distribution
system.tol3bus.trans_dist::ReadExReq            13858                       # Transaction distribution
system.tol3bus.trans_dist::ReadExResp           13858                       # Transaction distribution
system.tol3bus.trans_dist::ReadSharedReq    142404731                       # Transaction distribution
system.tol3bus.pkt_count_system.cpu.l2.mem_side::system.l3.cpu_side    427251854                       # Packet count per connected master and slave (bytes)
system.tol3bus.pkt_size_system.cpu.l2.mem_side::system.l3.cpu_side   9325859264                       # Cumulative packet size per connected master and slave (bytes)
system.tol3bus.snoops                        73013269                       # Total snoops (count)
system.tol3bus.snoopTraffic                   7516736                       # Total snoop traffic (bytes)
system.tol3bus.snoop_fanout::samples        215431858                       # Request fanout histogram
system.tol3bus.snoop_fanout::mean            0.000184                       # Request fanout histogram
system.tol3bus.snoop_fanout::stdev           0.013550                       # Request fanout histogram
system.tol3bus.snoop_fanout::underflows             0      0.00%      0.00% # Request fanout histogram
system.tol3bus.snoop_fanout::0              215392294     99.98%     99.98% # Request fanout histogram
system.tol3bus.snoop_fanout::1                  39564      0.02%    100.00% # Request fanout histogram
system.tol3bus.snoop_fanout::overflows              0      0.00%    100.00% # Request fanout histogram
system.tol3bus.snoop_fanout::min_value              0                       # Request fanout histogram
system.tol3bus.snoop_fanout::max_value              1                       # Request fanout histogram
system.tol3bus.snoop_fanout::total          215431858                       # Request fanout histogram
system.tol3bus.reqLayer0.occupancy        95947698591                       # Layer occupancy (ticks)
system.tol3bus.reqLayer0.utilization              0.7                       # Layer utilization (%)
system.tol3bus.respLayer0.occupancy       94850780274                       # Layer occupancy (ticks)
system.tol3bus.respLayer0.utilization             0.7                       # Layer utilization (%)

---------- End Simulation Statistics   ----------
