
---------- Begin Simulation Statistics ----------
sim_seconds                                  4.433213                       # Number of seconds simulated
sim_ticks                                4433212767582                       # Number of ticks simulated
final_tick                               404122107670029                       # Number of ticks from beginning of simulation (restored from checkpoints and never reset)
sim_freq                                 1000000000000                       # Frequency of simulated ticks
host_inst_rate                                 209912                       # Simulator instruction rate (inst/s)
host_op_rate                                   209912                       # Simulator op (including micro ops) rate (op/s)
host_tick_rate                              775486105                       # Simulator tick rate (ticks/s)
host_mem_usage                                2390172                       # Number of bytes of host memory used
host_seconds                                  5716.69                       # Real time elapsed on the host
sim_insts                                  1200000004                       # Number of instructions simulated
sim_ops                                    1200000004                       # Number of ops (including micro ops) simulated
system.voltage_domain.voltage                       1                       # Voltage in Volts
system.clk_domain.clock                          1000                       # Clock period in ticks
system.mem_ctrls0.pwrStateResidencyTicks::UNDEFINED 404122107670029                       # Cumulative time (in ticks) in various power states
system.mem_ctrls0.bytes_read::cpu.inst            192                       # Number of bytes read from this memory
system.mem_ctrls0.bytes_read::switch_cpus.inst         1280                       # Number of bytes read from this memory
system.mem_ctrls0.bytes_read::switch_cpus.data    929401408                       # Number of bytes read from this memory
system.mem_ctrls0.bytes_read::switch_cpus_1.inst           64                       # Number of bytes read from this memory
system.mem_ctrls0.bytes_read::switch_cpus_1.data    185046336                       # Number of bytes read from this memory
system.mem_ctrls0.bytes_read::total        1114449280                       # Number of bytes read from this memory
system.mem_ctrls0.bytes_inst_read::cpu.inst          192                       # Number of instructions bytes read from this memory
system.mem_ctrls0.bytes_inst_read::switch_cpus.inst         1280                       # Number of instructions bytes read from this memory
system.mem_ctrls0.bytes_inst_read::switch_cpus_1.inst           64                       # Number of instructions bytes read from this memory
system.mem_ctrls0.bytes_inst_read::total         1536                       # Number of instructions bytes read from this memory
system.mem_ctrls0.bytes_written::writebacks    431732352                       # Number of bytes written to this memory
system.mem_ctrls0.bytes_written::total      431732352                       # Number of bytes written to this memory
system.mem_ctrls0.num_reads::cpu.inst               3                       # Number of read requests responded to by this memory
system.mem_ctrls0.num_reads::switch_cpus.inst           20                       # Number of read requests responded to by this memory
system.mem_ctrls0.num_reads::switch_cpus.data     14521897                       # Number of read requests responded to by this memory
system.mem_ctrls0.num_reads::switch_cpus_1.inst            1                       # Number of read requests responded to by this memory
system.mem_ctrls0.num_reads::switch_cpus_1.data      2891349                       # Number of read requests responded to by this memory
system.mem_ctrls0.num_reads::total           17413270                       # Number of read requests responded to by this memory
system.mem_ctrls0.num_writes::writebacks      6745818                       # Number of write requests responded to by this memory
system.mem_ctrls0.num_writes::total           6745818                       # Number of write requests responded to by this memory
system.mem_ctrls0.bw_read::cpu.inst                43                       # Total read bandwidth from this memory (bytes/s)
system.mem_ctrls0.bw_read::switch_cpus.inst          289                       # Total read bandwidth from this memory (bytes/s)
system.mem_ctrls0.bw_read::switch_cpus.data    209645117                       # Total read bandwidth from this memory (bytes/s)
system.mem_ctrls0.bw_read::switch_cpus_1.inst           14                       # Total read bandwidth from this memory (bytes/s)
system.mem_ctrls0.bw_read::switch_cpus_1.data     41740910                       # Total read bandwidth from this memory (bytes/s)
system.mem_ctrls0.bw_read::total            251386373                       # Total read bandwidth from this memory (bytes/s)
system.mem_ctrls0.bw_inst_read::cpu.inst           43                       # Instruction read bandwidth from this memory (bytes/s)
system.mem_ctrls0.bw_inst_read::switch_cpus.inst          289                       # Instruction read bandwidth from this memory (bytes/s)
system.mem_ctrls0.bw_inst_read::switch_cpus_1.inst           14                       # Instruction read bandwidth from this memory (bytes/s)
system.mem_ctrls0.bw_inst_read::total             346                       # Instruction read bandwidth from this memory (bytes/s)
system.mem_ctrls0.bw_write::writebacks       97385886                       # Write bandwidth from this memory (bytes/s)
system.mem_ctrls0.bw_write::total            97385886                       # Write bandwidth from this memory (bytes/s)
system.mem_ctrls0.bw_total::writebacks       97385886                       # Total bandwidth to/from this memory (bytes/s)
system.mem_ctrls0.bw_total::cpu.inst               43                       # Total bandwidth to/from this memory (bytes/s)
system.mem_ctrls0.bw_total::switch_cpus.inst          289                       # Total bandwidth to/from this memory (bytes/s)
system.mem_ctrls0.bw_total::switch_cpus.data    209645117                       # Total bandwidth to/from this memory (bytes/s)
system.mem_ctrls0.bw_total::switch_cpus_1.inst           14                       # Total bandwidth to/from this memory (bytes/s)
system.mem_ctrls0.bw_total::switch_cpus_1.data     41740910                       # Total bandwidth to/from this memory (bytes/s)
system.mem_ctrls0.bw_total::total           348772259                       # Total bandwidth to/from this memory (bytes/s)
system.mem_ctrls0.readReqs                   17413270                       # Number of read requests accepted
system.mem_ctrls0.writeReqs                   6745818                       # Number of write requests accepted
system.mem_ctrls0.readBursts                 17413270                       # Number of DRAM read bursts, including those serviced by the write queue
system.mem_ctrls0.writeBursts                 6745818                       # Number of DRAM write bursts, including those merged in the write queue
system.mem_ctrls0.bytesReadDRAM            1114437952                       # Total number of bytes read from DRAM
system.mem_ctrls0.bytesReadWrQ                  11328                       # Total number of bytes read from write queue
system.mem_ctrls0.bytesWritten              431730432                       # Total number of bytes written to DRAM
system.mem_ctrls0.bytesReadSys             1114449280                       # Total read bytes from the system interface side
system.mem_ctrls0.bytesWrittenSys           431732352                       # Total written bytes from the system interface side
system.mem_ctrls0.servicedByWrQ                   177                       # Number of DRAM read bursts serviced by the write queue
system.mem_ctrls0.mergedWrBursts                    0                       # Number of DRAM write bursts merged with an existing one
system.mem_ctrls0.neitherReadNorWriteReqs            0                       # Number of requests that are neither read nor write
system.mem_ctrls0.perBankRdBursts::0          1088099                       # Per bank write bursts
system.mem_ctrls0.perBankRdBursts::1          1086420                       # Per bank write bursts
system.mem_ctrls0.perBankRdBursts::2          1088578                       # Per bank write bursts
system.mem_ctrls0.perBankRdBursts::3          1088808                       # Per bank write bursts
system.mem_ctrls0.perBankRdBursts::4          1089117                       # Per bank write bursts
system.mem_ctrls0.perBankRdBursts::5          1089211                       # Per bank write bursts
system.mem_ctrls0.perBankRdBursts::6          1087238                       # Per bank write bursts
system.mem_ctrls0.perBankRdBursts::7          1085740                       # Per bank write bursts
system.mem_ctrls0.perBankRdBursts::8          1085638                       # Per bank write bursts
system.mem_ctrls0.perBankRdBursts::9          1089602                       # Per bank write bursts
system.mem_ctrls0.perBankRdBursts::10         1085338                       # Per bank write bursts
system.mem_ctrls0.perBankRdBursts::11         1090066                       # Per bank write bursts
system.mem_ctrls0.perBankRdBursts::12         1090632                       # Per bank write bursts
system.mem_ctrls0.perBankRdBursts::13         1091143                       # Per bank write bursts
system.mem_ctrls0.perBankRdBursts::14         1089552                       # Per bank write bursts
system.mem_ctrls0.perBankRdBursts::15         1087911                       # Per bank write bursts
system.mem_ctrls0.perBankWrBursts::0           228628                       # Per bank write bursts
system.mem_ctrls0.perBankWrBursts::1           299950                       # Per bank write bursts
system.mem_ctrls0.perBankWrBursts::2           517630                       # Per bank write bursts
system.mem_ctrls0.perBankWrBursts::3           614953                       # Per bank write bursts
system.mem_ctrls0.perBankWrBursts::4           615583                       # Per bank write bursts
system.mem_ctrls0.perBankWrBursts::5           614096                       # Per bank write bursts
system.mem_ctrls0.perBankWrBursts::6           613378                       # Per bank write bursts
system.mem_ctrls0.perBankWrBursts::7           614425                       # Per bank write bursts
system.mem_ctrls0.perBankWrBursts::8           613750                       # Per bank write bursts
system.mem_ctrls0.perBankWrBursts::9           542502                       # Per bank write bursts
system.mem_ctrls0.perBankWrBursts::10          326381                       # Per bank write bursts
system.mem_ctrls0.perBankWrBursts::11          228890                       # Per bank write bursts
system.mem_ctrls0.perBankWrBursts::12          228999                       # Per bank write bursts
system.mem_ctrls0.perBankWrBursts::13          229061                       # Per bank write bursts
system.mem_ctrls0.perBankWrBursts::14          228940                       # Per bank write bursts
system.mem_ctrls0.perBankWrBursts::15          228622                       # Per bank write bursts
system.mem_ctrls0.numRdRetry                        0                       # Number of times read queue was full causing retry
system.mem_ctrls0.numWrRetry                        0                       # Number of times write queue was full causing retry
system.mem_ctrls0.totGap                 4433212719297                       # Total gap between requests
system.mem_ctrls0.readPktSize::0                    0                       # Read request sizes (log2)
system.mem_ctrls0.readPktSize::1                    0                       # Read request sizes (log2)
system.mem_ctrls0.readPktSize::2                    0                       # Read request sizes (log2)
system.mem_ctrls0.readPktSize::3                    0                       # Read request sizes (log2)
system.mem_ctrls0.readPktSize::4                    0                       # Read request sizes (log2)
system.mem_ctrls0.readPktSize::5                    0                       # Read request sizes (log2)
system.mem_ctrls0.readPktSize::6             17413270                       # Read request sizes (log2)
system.mem_ctrls0.writePktSize::0                   0                       # Write request sizes (log2)
system.mem_ctrls0.writePktSize::1                   0                       # Write request sizes (log2)
system.mem_ctrls0.writePktSize::2                   0                       # Write request sizes (log2)
system.mem_ctrls0.writePktSize::3                   0                       # Write request sizes (log2)
system.mem_ctrls0.writePktSize::4                   0                       # Write request sizes (log2)
system.mem_ctrls0.writePktSize::5                   0                       # Write request sizes (log2)
system.mem_ctrls0.writePktSize::6             6745818                       # Write request sizes (log2)
system.mem_ctrls0.rdQLenPdf::0               16191027                       # What read queue length does an incoming req see
system.mem_ctrls0.rdQLenPdf::1                1115484                       # What read queue length does an incoming req see
system.mem_ctrls0.rdQLenPdf::2                  69655                       # What read queue length does an incoming req see
system.mem_ctrls0.rdQLenPdf::3                  36927                       # What read queue length does an incoming req see
system.mem_ctrls0.rdQLenPdf::4                      0                       # What read queue length does an incoming req see
system.mem_ctrls0.rdQLenPdf::5                      0                       # What read queue length does an incoming req see
system.mem_ctrls0.rdQLenPdf::6                      0                       # What read queue length does an incoming req see
system.mem_ctrls0.rdQLenPdf::7                      0                       # What read queue length does an incoming req see
system.mem_ctrls0.rdQLenPdf::8                      0                       # What read queue length does an incoming req see
system.mem_ctrls0.rdQLenPdf::9                      0                       # What read queue length does an incoming req see
system.mem_ctrls0.rdQLenPdf::10                     0                       # What read queue length does an incoming req see
system.mem_ctrls0.rdQLenPdf::11                     0                       # What read queue length does an incoming req see
system.mem_ctrls0.rdQLenPdf::12                     0                       # What read queue length does an incoming req see
system.mem_ctrls0.rdQLenPdf::13                     0                       # What read queue length does an incoming req see
system.mem_ctrls0.rdQLenPdf::14                     0                       # What read queue length does an incoming req see
system.mem_ctrls0.rdQLenPdf::15                     0                       # What read queue length does an incoming req see
system.mem_ctrls0.rdQLenPdf::16                     0                       # What read queue length does an incoming req see
system.mem_ctrls0.rdQLenPdf::17                     0                       # What read queue length does an incoming req see
system.mem_ctrls0.rdQLenPdf::18                     0                       # What read queue length does an incoming req see
system.mem_ctrls0.rdQLenPdf::19                     0                       # What read queue length does an incoming req see
system.mem_ctrls0.rdQLenPdf::20                     0                       # What read queue length does an incoming req see
system.mem_ctrls0.rdQLenPdf::21                     0                       # What read queue length does an incoming req see
system.mem_ctrls0.rdQLenPdf::22                     0                       # What read queue length does an incoming req see
system.mem_ctrls0.rdQLenPdf::23                     0                       # What read queue length does an incoming req see
system.mem_ctrls0.rdQLenPdf::24                     0                       # What read queue length does an incoming req see
system.mem_ctrls0.rdQLenPdf::25                     0                       # What read queue length does an incoming req see
system.mem_ctrls0.rdQLenPdf::26                     0                       # What read queue length does an incoming req see
system.mem_ctrls0.rdQLenPdf::27                     0                       # What read queue length does an incoming req see
system.mem_ctrls0.rdQLenPdf::28                     0                       # What read queue length does an incoming req see
system.mem_ctrls0.rdQLenPdf::29                     0                       # What read queue length does an incoming req see
system.mem_ctrls0.rdQLenPdf::30                     0                       # What read queue length does an incoming req see
system.mem_ctrls0.rdQLenPdf::31                     0                       # What read queue length does an incoming req see
system.mem_ctrls0.wrQLenPdf::0                      2                       # What write queue length does an incoming req see
system.mem_ctrls0.wrQLenPdf::1                      2                       # What write queue length does an incoming req see
system.mem_ctrls0.wrQLenPdf::2                      2                       # What write queue length does an incoming req see
system.mem_ctrls0.wrQLenPdf::3                      2                       # What write queue length does an incoming req see
system.mem_ctrls0.wrQLenPdf::4                      2                       # What write queue length does an incoming req see
system.mem_ctrls0.wrQLenPdf::5                      2                       # What write queue length does an incoming req see
system.mem_ctrls0.wrQLenPdf::6                      2                       # What write queue length does an incoming req see
system.mem_ctrls0.wrQLenPdf::7                      2                       # What write queue length does an incoming req see
system.mem_ctrls0.wrQLenPdf::8                      2                       # What write queue length does an incoming req see
system.mem_ctrls0.wrQLenPdf::9                      2                       # What write queue length does an incoming req see
system.mem_ctrls0.wrQLenPdf::10                     2                       # What write queue length does an incoming req see
system.mem_ctrls0.wrQLenPdf::11                     2                       # What write queue length does an incoming req see
system.mem_ctrls0.wrQLenPdf::12                     2                       # What write queue length does an incoming req see
system.mem_ctrls0.wrQLenPdf::13                     2                       # What write queue length does an incoming req see
system.mem_ctrls0.wrQLenPdf::14                     2                       # What write queue length does an incoming req see
system.mem_ctrls0.wrQLenPdf::15                 63749                       # What write queue length does an incoming req see
system.mem_ctrls0.wrQLenPdf::16                 77725                       # What write queue length does an incoming req see
system.mem_ctrls0.wrQLenPdf::17                324646                       # What write queue length does an incoming req see
system.mem_ctrls0.wrQLenPdf::18                384767                       # What write queue length does an incoming req see
system.mem_ctrls0.wrQLenPdf::19                405811                       # What write queue length does an incoming req see
system.mem_ctrls0.wrQLenPdf::20                415879                       # What write queue length does an incoming req see
system.mem_ctrls0.wrQLenPdf::21                420314                       # What write queue length does an incoming req see
system.mem_ctrls0.wrQLenPdf::22                422545                       # What write queue length does an incoming req see
system.mem_ctrls0.wrQLenPdf::23                423873                       # What write queue length does an incoming req see
system.mem_ctrls0.wrQLenPdf::24                424821                       # What write queue length does an incoming req see
system.mem_ctrls0.wrQLenPdf::25                425572                       # What write queue length does an incoming req see
system.mem_ctrls0.wrQLenPdf::26                424731                       # What write queue length does an incoming req see
system.mem_ctrls0.wrQLenPdf::27                422963                       # What write queue length does an incoming req see
system.mem_ctrls0.wrQLenPdf::28                421692                       # What write queue length does an incoming req see
system.mem_ctrls0.wrQLenPdf::29                423196                       # What write queue length does an incoming req see
system.mem_ctrls0.wrQLenPdf::30                424138                       # What write queue length does an incoming req see
system.mem_ctrls0.wrQLenPdf::31                419202                       # What write queue length does an incoming req see
system.mem_ctrls0.wrQLenPdf::32                417251                       # What write queue length does an incoming req see
system.mem_ctrls0.wrQLenPdf::33                  2678                       # What write queue length does an incoming req see
system.mem_ctrls0.wrQLenPdf::34                   193                       # What write queue length does an incoming req see
system.mem_ctrls0.wrQLenPdf::35                    38                       # What write queue length does an incoming req see
system.mem_ctrls0.wrQLenPdf::36                     3                       # What write queue length does an incoming req see
system.mem_ctrls0.wrQLenPdf::37                     1                       # What write queue length does an incoming req see
system.mem_ctrls0.wrQLenPdf::38                     0                       # What write queue length does an incoming req see
system.mem_ctrls0.wrQLenPdf::39                     0                       # What write queue length does an incoming req see
system.mem_ctrls0.wrQLenPdf::40                     0                       # What write queue length does an incoming req see
system.mem_ctrls0.wrQLenPdf::41                     0                       # What write queue length does an incoming req see
system.mem_ctrls0.wrQLenPdf::42                     0                       # What write queue length does an incoming req see
system.mem_ctrls0.wrQLenPdf::43                     0                       # What write queue length does an incoming req see
system.mem_ctrls0.wrQLenPdf::44                     0                       # What write queue length does an incoming req see
system.mem_ctrls0.wrQLenPdf::45                     0                       # What write queue length does an incoming req see
system.mem_ctrls0.wrQLenPdf::46                     0                       # What write queue length does an incoming req see
system.mem_ctrls0.wrQLenPdf::47                     0                       # What write queue length does an incoming req see
system.mem_ctrls0.wrQLenPdf::48                     0                       # What write queue length does an incoming req see
system.mem_ctrls0.wrQLenPdf::49                     0                       # What write queue length does an incoming req see
system.mem_ctrls0.wrQLenPdf::50                     0                       # What write queue length does an incoming req see
system.mem_ctrls0.wrQLenPdf::51                     0                       # What write queue length does an incoming req see
system.mem_ctrls0.wrQLenPdf::52                     0                       # What write queue length does an incoming req see
system.mem_ctrls0.wrQLenPdf::53                     0                       # What write queue length does an incoming req see
system.mem_ctrls0.wrQLenPdf::54                     0                       # What write queue length does an incoming req see
system.mem_ctrls0.wrQLenPdf::55                     0                       # What write queue length does an incoming req see
system.mem_ctrls0.wrQLenPdf::56                     0                       # What write queue length does an incoming req see
system.mem_ctrls0.wrQLenPdf::57                     0                       # What write queue length does an incoming req see
system.mem_ctrls0.wrQLenPdf::58                     0                       # What write queue length does an incoming req see
system.mem_ctrls0.wrQLenPdf::59                     0                       # What write queue length does an incoming req see
system.mem_ctrls0.wrQLenPdf::60                     0                       # What write queue length does an incoming req see
system.mem_ctrls0.wrQLenPdf::61                     0                       # What write queue length does an incoming req see
system.mem_ctrls0.wrQLenPdf::62                     0                       # What write queue length does an incoming req see
system.mem_ctrls0.wrQLenPdf::63                     0                       # What write queue length does an incoming req see
system.mem_ctrls0.bytesPerActivate::samples      5488441                       # Bytes accessed per row activation
system.mem_ctrls0.bytesPerActivate::mean   281.713444                       # Bytes accessed per row activation
system.mem_ctrls0.bytesPerActivate::gmean   154.662860                       # Bytes accessed per row activation
system.mem_ctrls0.bytesPerActivate::stdev   330.728740                       # Bytes accessed per row activation
system.mem_ctrls0.bytesPerActivate::0-127      2655159     48.38%     48.38% # Bytes accessed per row activation
system.mem_ctrls0.bytesPerActivate::128-255      1110382     20.23%     68.61% # Bytes accessed per row activation
system.mem_ctrls0.bytesPerActivate::256-383       323633      5.90%     74.51% # Bytes accessed per row activation
system.mem_ctrls0.bytesPerActivate::384-511       178639      3.25%     77.76% # Bytes accessed per row activation
system.mem_ctrls0.bytesPerActivate::512-639       137259      2.50%     80.26% # Bytes accessed per row activation
system.mem_ctrls0.bytesPerActivate::640-767       171013      3.12%     83.38% # Bytes accessed per row activation
system.mem_ctrls0.bytesPerActivate::768-895       244426      4.45%     87.83% # Bytes accessed per row activation
system.mem_ctrls0.bytesPerActivate::896-1023        84387      1.54%     89.37% # Bytes accessed per row activation
system.mem_ctrls0.bytesPerActivate::1024-1151       583543     10.63%    100.00% # Bytes accessed per row activation
system.mem_ctrls0.bytesPerActivate::total      5488441                       # Bytes accessed per row activation
system.mem_ctrls0.rdPerTurnAround::samples       410581                       # Reads before turning the bus around for writes
system.mem_ctrls0.rdPerTurnAround::mean     42.410776                       # Reads before turning the bus around for writes
system.mem_ctrls0.rdPerTurnAround::gmean    27.820777                       # Reads before turning the bus around for writes
system.mem_ctrls0.rdPerTurnAround::stdev   158.434345                       # Reads before turning the bus around for writes
system.mem_ctrls0.rdPerTurnAround::0-2047       410503     99.98%     99.98% # Reads before turning the bus around for writes
system.mem_ctrls0.rdPerTurnAround::2048-4095           43      0.01%     99.99% # Reads before turning the bus around for writes
system.mem_ctrls0.rdPerTurnAround::4096-6143           12      0.00%     99.99% # Reads before turning the bus around for writes
system.mem_ctrls0.rdPerTurnAround::6144-8191            6      0.00%    100.00% # Reads before turning the bus around for writes
system.mem_ctrls0.rdPerTurnAround::8192-10239            4      0.00%    100.00% # Reads before turning the bus around for writes
system.mem_ctrls0.rdPerTurnAround::10240-12287            4      0.00%    100.00% # Reads before turning the bus around for writes
system.mem_ctrls0.rdPerTurnAround::12288-14335            3      0.00%    100.00% # Reads before turning the bus around for writes
system.mem_ctrls0.rdPerTurnAround::14336-16383            1      0.00%    100.00% # Reads before turning the bus around for writes
system.mem_ctrls0.rdPerTurnAround::24576-26623            2      0.00%    100.00% # Reads before turning the bus around for writes
system.mem_ctrls0.rdPerTurnAround::30720-32767            1      0.00%    100.00% # Reads before turning the bus around for writes
system.mem_ctrls0.rdPerTurnAround::32768-34815            1      0.00%    100.00% # Reads before turning the bus around for writes
system.mem_ctrls0.rdPerTurnAround::51200-53247            1      0.00%    100.00% # Reads before turning the bus around for writes
system.mem_ctrls0.rdPerTurnAround::total       410581                       # Reads before turning the bus around for writes
system.mem_ctrls0.wrPerTurnAround::samples       410581                       # Writes before turning the bus around for reads
system.mem_ctrls0.wrPerTurnAround::mean     16.429859                       # Writes before turning the bus around for reads
system.mem_ctrls0.wrPerTurnAround::gmean    16.405204                       # Writes before turning the bus around for reads
system.mem_ctrls0.wrPerTurnAround::stdev     0.931887                       # Writes before turning the bus around for reads
system.mem_ctrls0.wrPerTurnAround::16          331412     80.72%     80.72% # Writes before turning the bus around for reads
system.mem_ctrls0.wrPerTurnAround::17            9807      2.39%     83.11% # Writes before turning the bus around for reads
system.mem_ctrls0.wrPerTurnAround::18           44025     10.72%     93.83% # Writes before turning the bus around for reads
system.mem_ctrls0.wrPerTurnAround::19           22760      5.54%     99.37% # Writes before turning the bus around for reads
system.mem_ctrls0.wrPerTurnAround::20            2538      0.62%     99.99% # Writes before turning the bus around for reads
system.mem_ctrls0.wrPerTurnAround::21              32      0.01%    100.00% # Writes before turning the bus around for reads
system.mem_ctrls0.wrPerTurnAround::22               6      0.00%    100.00% # Writes before turning the bus around for reads
system.mem_ctrls0.wrPerTurnAround::23               1      0.00%    100.00% # Writes before turning the bus around for reads
system.mem_ctrls0.wrPerTurnAround::total       410581                       # Writes before turning the bus around for reads
system.mem_ctrls0.totQLat                347083664039                       # Total ticks spent queuing
system.mem_ctrls0.totMemAccLat           673579157789                       # Total ticks spent from burst creation until serviced by the DRAM
system.mem_ctrls0.totBusLat               87065465000                       # Total ticks spent in databus transfers
system.mem_ctrls0.avgQLat                    19932.34                       # Average queueing delay per DRAM burst
system.mem_ctrls0.avgBusLat                   5000.00                       # Average bus latency per DRAM burst
system.mem_ctrls0.avgMemAccLat               38682.34                       # Average memory access latency per DRAM burst
system.mem_ctrls0.avgRdBW                      251.38                       # Average DRAM read bandwidth in MiByte/s
system.mem_ctrls0.avgWrBW                       97.39                       # Average achieved write bandwidth in MiByte/s
system.mem_ctrls0.avgRdBWSys                   251.39                       # Average system read bandwidth in MiByte/s
system.mem_ctrls0.avgWrBWSys                    97.39                       # Average system write bandwidth in MiByte/s
system.mem_ctrls0.peakBW                     12800.00                       # Theoretical peak bandwidth in MiByte/s
system.mem_ctrls0.busUtil                        2.72                       # Data bus utilization in percentage
system.mem_ctrls0.busUtilRead                    1.96                       # Data bus utilization in percentage for reads
system.mem_ctrls0.busUtilWrite                   0.76                       # Data bus utilization in percentage for writes
system.mem_ctrls0.avgRdQLen                      1.04                       # Average read queue length when enqueuing
system.mem_ctrls0.avgWrQLen                     25.47                       # Average write queue length when enqueuing
system.mem_ctrls0.readRowHits                15844300                       # Number of row buffer hits during reads
system.mem_ctrls0.writeRowHits                2826139                       # Number of row buffer hits during writes
system.mem_ctrls0.readRowHitRate                90.99                       # Row buffer hit rate for reads
system.mem_ctrls0.writeRowHitRate               41.89                       # Row buffer hit rate for writes
system.mem_ctrls0.avgGap                    183500.83                       # Average gap between requests
system.mem_ctrls0.pageHitRate                   77.28                       # Row buffer hit rate, read and write combined
system.mem_ctrls0_0.actEnergy             23009606760                       # Energy for activate commands per rank (pJ)
system.mem_ctrls0_0.preEnergy             12229892235                       # Energy for precharge commands per rank (pJ)
system.mem_ctrls0_0.readEnergy            62140926540                       # Energy for read commands per rank (pJ)
system.mem_ctrls0_0.writeEnergy           21499316460                       # Energy for write commands per rank (pJ)
system.mem_ctrls0_0.refreshEnergy        303179784960.000061                       # Energy for refresh commands per rank (pJ)
system.mem_ctrls0_0.actBackEnergy        362094111390                       # Energy for active background per rank (pJ)
system.mem_ctrls0_0.preBackEnergy         22455524160                       # Energy for precharge background per rank (pJ)
system.mem_ctrls0_0.actPowerDownEnergy   811184016780                       # Energy for active power-down per rank (pJ)
system.mem_ctrls0_0.prePowerDownEnergy   274202792640                       # Energy for precharge power-down per rank (pJ)
system.mem_ctrls0_0.selfRefreshEnergy    298803826005                       # Energy for self refresh per rank (pJ)
system.mem_ctrls0_0.totalEnergy          2191026613530                       # Total energy per rank (pJ)
system.mem_ctrls0_0.averagePower           494.229946                       # Core power per rank (mW)
system.mem_ctrls0_0.totalIdleTime        3580166591513                       # Total Idle time Per DRAM Rank
system.mem_ctrls0_0.memoryStateTime::IDLE  31512812543                       # Time in different power states
system.mem_ctrls0_0.memoryStateTime::REF 128685380000                       # Time in different power states
system.mem_ctrls0_0.memoryStateTime::SREF 1087183231033                       # Time in different power states
system.mem_ctrls0_0.memoryStateTime::PRE_PDN 714069761304                       # Time in different power states
system.mem_ctrls0_0.memoryStateTime::ACT 692847907377                       # Time in different power states
system.mem_ctrls0_0.memoryStateTime::ACT_PDN 1778913675325                       # Time in different power states
system.mem_ctrls0_1.actEnergy             16177869120                       # Energy for activate commands per rank (pJ)
system.mem_ctrls0_1.preEnergy              8598741360                       # Energy for precharge commands per rank (pJ)
system.mem_ctrls0_1.readEnergy            62188557480                       # Energy for read commands per rank (pJ)
system.mem_ctrls0_1.writeEnergy           13713696900                       # Energy for write commands per rank (pJ)
system.mem_ctrls0_1.refreshEnergy        291256998240.000061                       # Energy for refresh commands per rank (pJ)
system.mem_ctrls0_1.actBackEnergy        307081124550                       # Energy for active background per rank (pJ)
system.mem_ctrls0_1.preBackEnergy         20740415040                       # Energy for precharge background per rank (pJ)
system.mem_ctrls0_1.actPowerDownEnergy   812116711770                       # Energy for active power-down per rank (pJ)
system.mem_ctrls0_1.prePowerDownEnergy   271147394400                       # Energy for precharge power-down per rank (pJ)
system.mem_ctrls0_1.selfRefreshEnergy    328719138450                       # Energy for self refresh per rank (pJ)
system.mem_ctrls0_1.totalEnergy          2131940762940                       # Total energy per rank (pJ)
system.mem_ctrls0_1.averagePower           480.901956                       # Core power per rank (mW)
system.mem_ctrls0_1.totalIdleTime        3705327014555                       # Total Idle time Per DRAM Rank
system.mem_ctrls0_1.memoryStateTime::IDLE  29375262366                       # Time in different power states
system.mem_ctrls0_1.memoryStateTime::REF 123619070000                       # Time in different power states
system.mem_ctrls0_1.memoryStateTime::SREF 1218262879323                       # Time in different power states
system.mem_ctrls0_1.memoryStateTime::PRE_PDN 706112685576                       # Time in different power states
system.mem_ctrls0_1.memoryStateTime::ACT 574885337422                       # Time in different power states
system.mem_ctrls0_1.memoryStateTime::ACT_PDN 1780957532895                       # Time in different power states
system.mem_ctrls1.pwrStateResidencyTicks::UNDEFINED 404122107670029                       # Cumulative time (in ticks) in various power states
system.mem_ctrls1.bytes_read::switch_cpus.inst         1280                       # Number of bytes read from this memory
system.mem_ctrls1.bytes_read::switch_cpus.data    929268544                       # Number of bytes read from this memory
system.mem_ctrls1.bytes_read::switch_cpus_1.inst          192                       # Number of bytes read from this memory
system.mem_ctrls1.bytes_read::switch_cpus_1.data    185030912                       # Number of bytes read from this memory
system.mem_ctrls1.bytes_read::total        1114300928                       # Number of bytes read from this memory
system.mem_ctrls1.bytes_inst_read::switch_cpus.inst         1280                       # Number of instructions bytes read from this memory
system.mem_ctrls1.bytes_inst_read::switch_cpus_1.inst          192                       # Number of instructions bytes read from this memory
system.mem_ctrls1.bytes_inst_read::total         1472                       # Number of instructions bytes read from this memory
system.mem_ctrls1.bytes_written::writebacks    431649920                       # Number of bytes written to this memory
system.mem_ctrls1.bytes_written::total      431649920                       # Number of bytes written to this memory
system.mem_ctrls1.num_reads::switch_cpus.inst           20                       # Number of read requests responded to by this memory
system.mem_ctrls1.num_reads::switch_cpus.data     14519821                       # Number of read requests responded to by this memory
system.mem_ctrls1.num_reads::switch_cpus_1.inst            3                       # Number of read requests responded to by this memory
system.mem_ctrls1.num_reads::switch_cpus_1.data      2891108                       # Number of read requests responded to by this memory
system.mem_ctrls1.num_reads::total           17410952                       # Number of read requests responded to by this memory
system.mem_ctrls1.num_writes::writebacks      6744530                       # Number of write requests responded to by this memory
system.mem_ctrls1.num_writes::total           6744530                       # Number of write requests responded to by this memory
system.mem_ctrls1.bw_read::switch_cpus.inst          289                       # Total read bandwidth from this memory (bytes/s)
system.mem_ctrls1.bw_read::switch_cpus.data    209615147                       # Total read bandwidth from this memory (bytes/s)
system.mem_ctrls1.bw_read::switch_cpus_1.inst           43                       # Total read bandwidth from this memory (bytes/s)
system.mem_ctrls1.bw_read::switch_cpus_1.data     41737431                       # Total read bandwidth from this memory (bytes/s)
system.mem_ctrls1.bw_read::total            251352910                       # Total read bandwidth from this memory (bytes/s)
system.mem_ctrls1.bw_inst_read::switch_cpus.inst          289                       # Instruction read bandwidth from this memory (bytes/s)
system.mem_ctrls1.bw_inst_read::switch_cpus_1.inst           43                       # Instruction read bandwidth from this memory (bytes/s)
system.mem_ctrls1.bw_inst_read::total             332                       # Instruction read bandwidth from this memory (bytes/s)
system.mem_ctrls1.bw_write::writebacks       97367292                       # Write bandwidth from this memory (bytes/s)
system.mem_ctrls1.bw_write::total            97367292                       # Write bandwidth from this memory (bytes/s)
system.mem_ctrls1.bw_total::writebacks       97367292                       # Total bandwidth to/from this memory (bytes/s)
system.mem_ctrls1.bw_total::switch_cpus.inst          289                       # Total bandwidth to/from this memory (bytes/s)
system.mem_ctrls1.bw_total::switch_cpus.data    209615147                       # Total bandwidth to/from this memory (bytes/s)
system.mem_ctrls1.bw_total::switch_cpus_1.inst           43                       # Total bandwidth to/from this memory (bytes/s)
system.mem_ctrls1.bw_total::switch_cpus_1.data     41737431                       # Total bandwidth to/from this memory (bytes/s)
system.mem_ctrls1.bw_total::total           348720201                       # Total bandwidth to/from this memory (bytes/s)
system.mem_ctrls1.readReqs                   17410952                       # Number of read requests accepted
system.mem_ctrls1.writeReqs                   6744530                       # Number of write requests accepted
system.mem_ctrls1.readBursts                 17410952                       # Number of DRAM read bursts, including those serviced by the write queue
system.mem_ctrls1.writeBursts                 6744530                       # Number of DRAM write bursts, including those merged in the write queue
system.mem_ctrls1.bytesReadDRAM            1114288576                       # Total number of bytes read from DRAM
system.mem_ctrls1.bytesReadWrQ                  12352                       # Total number of bytes read from write queue
system.mem_ctrls1.bytesWritten              431648000                       # Total number of bytes written to DRAM
system.mem_ctrls1.bytesReadSys             1114300928                       # Total read bytes from the system interface side
system.mem_ctrls1.bytesWrittenSys           431649920                       # Total written bytes from the system interface side
system.mem_ctrls1.servicedByWrQ                   193                       # Number of DRAM read bursts serviced by the write queue
system.mem_ctrls1.mergedWrBursts                    0                       # Number of DRAM write bursts merged with an existing one
system.mem_ctrls1.neitherReadNorWriteReqs            0                       # Number of requests that are neither read nor write
system.mem_ctrls1.perBankRdBursts::0          1087467                       # Per bank write bursts
system.mem_ctrls1.perBankRdBursts::1          1086285                       # Per bank write bursts
system.mem_ctrls1.perBankRdBursts::2          1088408                       # Per bank write bursts
system.mem_ctrls1.perBankRdBursts::3          1089100                       # Per bank write bursts
system.mem_ctrls1.perBankRdBursts::4          1089094                       # Per bank write bursts
system.mem_ctrls1.perBankRdBursts::5          1089137                       # Per bank write bursts
system.mem_ctrls1.perBankRdBursts::6          1086590                       # Per bank write bursts
system.mem_ctrls1.perBankRdBursts::7          1085588                       # Per bank write bursts
system.mem_ctrls1.perBankRdBursts::8          1084751                       # Per bank write bursts
system.mem_ctrls1.perBankRdBursts::9          1089831                       # Per bank write bursts
system.mem_ctrls1.perBankRdBursts::10         1085429                       # Per bank write bursts
system.mem_ctrls1.perBankRdBursts::11         1090257                       # Per bank write bursts
system.mem_ctrls1.perBankRdBursts::12         1090498                       # Per bank write bursts
system.mem_ctrls1.perBankRdBursts::13         1090787                       # Per bank write bursts
system.mem_ctrls1.perBankRdBursts::14         1089783                       # Per bank write bursts
system.mem_ctrls1.perBankRdBursts::15         1087754                       # Per bank write bursts
system.mem_ctrls1.perBankWrBursts::0           228554                       # Per bank write bursts
system.mem_ctrls1.perBankWrBursts::1           299610                       # Per bank write bursts
system.mem_ctrls1.perBankWrBursts::2           517554                       # Per bank write bursts
system.mem_ctrls1.perBankWrBursts::3           615091                       # Per bank write bursts
system.mem_ctrls1.perBankWrBursts::4           615631                       # Per bank write bursts
system.mem_ctrls1.perBankWrBursts::5           614111                       # Per bank write bursts
system.mem_ctrls1.perBankWrBursts::6           612883                       # Per bank write bursts
system.mem_ctrls1.perBankWrBursts::7           614300                       # Per bank write bursts
system.mem_ctrls1.perBankWrBursts::8           613114                       # Per bank write bursts
system.mem_ctrls1.perBankWrBursts::9           542727                       # Per bank write bursts
system.mem_ctrls1.perBankWrBursts::10          326396                       # Per bank write bursts
system.mem_ctrls1.perBankWrBursts::11          228890                       # Per bank write bursts
system.mem_ctrls1.perBankWrBursts::12          228977                       # Per bank write bursts
system.mem_ctrls1.perBankWrBursts::13          229037                       # Per bank write bursts
system.mem_ctrls1.perBankWrBursts::14          229029                       # Per bank write bursts
system.mem_ctrls1.perBankWrBursts::15          228596                       # Per bank write bursts
system.mem_ctrls1.numRdRetry                        0                       # Number of times read queue was full causing retry
system.mem_ctrls1.numWrRetry                        0                       # Number of times write queue was full causing retry
system.mem_ctrls1.totGap                 4433204632392                       # Total gap between requests
system.mem_ctrls1.readPktSize::0                    0                       # Read request sizes (log2)
system.mem_ctrls1.readPktSize::1                    0                       # Read request sizes (log2)
system.mem_ctrls1.readPktSize::2                    0                       # Read request sizes (log2)
system.mem_ctrls1.readPktSize::3                    0                       # Read request sizes (log2)
system.mem_ctrls1.readPktSize::4                    0                       # Read request sizes (log2)
system.mem_ctrls1.readPktSize::5                    0                       # Read request sizes (log2)
system.mem_ctrls1.readPktSize::6             17410952                       # Read request sizes (log2)
system.mem_ctrls1.writePktSize::0                   0                       # Write request sizes (log2)
system.mem_ctrls1.writePktSize::1                   0                       # Write request sizes (log2)
system.mem_ctrls1.writePktSize::2                   0                       # Write request sizes (log2)
system.mem_ctrls1.writePktSize::3                   0                       # Write request sizes (log2)
system.mem_ctrls1.writePktSize::4                   0                       # Write request sizes (log2)
system.mem_ctrls1.writePktSize::5                   0                       # Write request sizes (log2)
system.mem_ctrls1.writePktSize::6             6744530                       # Write request sizes (log2)
system.mem_ctrls1.rdQLenPdf::0               16188587                       # What read queue length does an incoming req see
system.mem_ctrls1.rdQLenPdf::1                1115708                       # What read queue length does an incoming req see
system.mem_ctrls1.rdQLenPdf::2                  69516                       # What read queue length does an incoming req see
system.mem_ctrls1.rdQLenPdf::3                  36948                       # What read queue length does an incoming req see
system.mem_ctrls1.rdQLenPdf::4                      0                       # What read queue length does an incoming req see
system.mem_ctrls1.rdQLenPdf::5                      0                       # What read queue length does an incoming req see
system.mem_ctrls1.rdQLenPdf::6                      0                       # What read queue length does an incoming req see
system.mem_ctrls1.rdQLenPdf::7                      0                       # What read queue length does an incoming req see
system.mem_ctrls1.rdQLenPdf::8                      0                       # What read queue length does an incoming req see
system.mem_ctrls1.rdQLenPdf::9                      0                       # What read queue length does an incoming req see
system.mem_ctrls1.rdQLenPdf::10                     0                       # What read queue length does an incoming req see
system.mem_ctrls1.rdQLenPdf::11                     0                       # What read queue length does an incoming req see
system.mem_ctrls1.rdQLenPdf::12                     0                       # What read queue length does an incoming req see
system.mem_ctrls1.rdQLenPdf::13                     0                       # What read queue length does an incoming req see
system.mem_ctrls1.rdQLenPdf::14                     0                       # What read queue length does an incoming req see
system.mem_ctrls1.rdQLenPdf::15                     0                       # What read queue length does an incoming req see
system.mem_ctrls1.rdQLenPdf::16                     0                       # What read queue length does an incoming req see
system.mem_ctrls1.rdQLenPdf::17                     0                       # What read queue length does an incoming req see
system.mem_ctrls1.rdQLenPdf::18                     0                       # What read queue length does an incoming req see
system.mem_ctrls1.rdQLenPdf::19                     0                       # What read queue length does an incoming req see
system.mem_ctrls1.rdQLenPdf::20                     0                       # What read queue length does an incoming req see
system.mem_ctrls1.rdQLenPdf::21                     0                       # What read queue length does an incoming req see
system.mem_ctrls1.rdQLenPdf::22                     0                       # What read queue length does an incoming req see
system.mem_ctrls1.rdQLenPdf::23                     0                       # What read queue length does an incoming req see
system.mem_ctrls1.rdQLenPdf::24                     0                       # What read queue length does an incoming req see
system.mem_ctrls1.rdQLenPdf::25                     0                       # What read queue length does an incoming req see
system.mem_ctrls1.rdQLenPdf::26                     0                       # What read queue length does an incoming req see
system.mem_ctrls1.rdQLenPdf::27                     0                       # What read queue length does an incoming req see
system.mem_ctrls1.rdQLenPdf::28                     0                       # What read queue length does an incoming req see
system.mem_ctrls1.rdQLenPdf::29                     0                       # What read queue length does an incoming req see
system.mem_ctrls1.rdQLenPdf::30                     0                       # What read queue length does an incoming req see
system.mem_ctrls1.rdQLenPdf::31                     0                       # What read queue length does an incoming req see
system.mem_ctrls1.wrQLenPdf::0                      3                       # What write queue length does an incoming req see
system.mem_ctrls1.wrQLenPdf::1                      2                       # What write queue length does an incoming req see
system.mem_ctrls1.wrQLenPdf::2                      2                       # What write queue length does an incoming req see
system.mem_ctrls1.wrQLenPdf::3                      2                       # What write queue length does an incoming req see
system.mem_ctrls1.wrQLenPdf::4                      2                       # What write queue length does an incoming req see
system.mem_ctrls1.wrQLenPdf::5                      2                       # What write queue length does an incoming req see
system.mem_ctrls1.wrQLenPdf::6                      2                       # What write queue length does an incoming req see
system.mem_ctrls1.wrQLenPdf::7                      2                       # What write queue length does an incoming req see
system.mem_ctrls1.wrQLenPdf::8                      2                       # What write queue length does an incoming req see
system.mem_ctrls1.wrQLenPdf::9                      2                       # What write queue length does an incoming req see
system.mem_ctrls1.wrQLenPdf::10                     2                       # What write queue length does an incoming req see
system.mem_ctrls1.wrQLenPdf::11                     2                       # What write queue length does an incoming req see
system.mem_ctrls1.wrQLenPdf::12                     2                       # What write queue length does an incoming req see
system.mem_ctrls1.wrQLenPdf::13                     2                       # What write queue length does an incoming req see
system.mem_ctrls1.wrQLenPdf::14                     2                       # What write queue length does an incoming req see
system.mem_ctrls1.wrQLenPdf::15                 63476                       # What write queue length does an incoming req see
system.mem_ctrls1.wrQLenPdf::16                 77473                       # What write queue length does an incoming req see
system.mem_ctrls1.wrQLenPdf::17                324191                       # What write queue length does an incoming req see
system.mem_ctrls1.wrQLenPdf::18                384495                       # What write queue length does an incoming req see
system.mem_ctrls1.wrQLenPdf::19                405741                       # What write queue length does an incoming req see
system.mem_ctrls1.wrQLenPdf::20                415546                       # What write queue length does an incoming req see
system.mem_ctrls1.wrQLenPdf::21                420335                       # What write queue length does an incoming req see
system.mem_ctrls1.wrQLenPdf::22                422472                       # What write queue length does an incoming req see
system.mem_ctrls1.wrQLenPdf::23                423970                       # What write queue length does an incoming req see
system.mem_ctrls1.wrQLenPdf::24                424913                       # What write queue length does an incoming req see
system.mem_ctrls1.wrQLenPdf::25                425727                       # What write queue length does an incoming req see
system.mem_ctrls1.wrQLenPdf::26                424873                       # What write queue length does an incoming req see
system.mem_ctrls1.wrQLenPdf::27                423016                       # What write queue length does an incoming req see
system.mem_ctrls1.wrQLenPdf::28                421750                       # What write queue length does an incoming req see
system.mem_ctrls1.wrQLenPdf::29                423069                       # What write queue length does an incoming req see
system.mem_ctrls1.wrQLenPdf::30                424159                       # What write queue length does an incoming req see
system.mem_ctrls1.wrQLenPdf::31                419109                       # What write queue length does an incoming req see
system.mem_ctrls1.wrQLenPdf::32                417179                       # What write queue length does an incoming req see
system.mem_ctrls1.wrQLenPdf::33                  2746                       # What write queue length does an incoming req see
system.mem_ctrls1.wrQLenPdf::34                   204                       # What write queue length does an incoming req see
system.mem_ctrls1.wrQLenPdf::35                    46                       # What write queue length does an incoming req see
system.mem_ctrls1.wrQLenPdf::36                     8                       # What write queue length does an incoming req see
system.mem_ctrls1.wrQLenPdf::37                     1                       # What write queue length does an incoming req see
system.mem_ctrls1.wrQLenPdf::38                     0                       # What write queue length does an incoming req see
system.mem_ctrls1.wrQLenPdf::39                     0                       # What write queue length does an incoming req see
system.mem_ctrls1.wrQLenPdf::40                     0                       # What write queue length does an incoming req see
system.mem_ctrls1.wrQLenPdf::41                     0                       # What write queue length does an incoming req see
system.mem_ctrls1.wrQLenPdf::42                     0                       # What write queue length does an incoming req see
system.mem_ctrls1.wrQLenPdf::43                     0                       # What write queue length does an incoming req see
system.mem_ctrls1.wrQLenPdf::44                     0                       # What write queue length does an incoming req see
system.mem_ctrls1.wrQLenPdf::45                     0                       # What write queue length does an incoming req see
system.mem_ctrls1.wrQLenPdf::46                     0                       # What write queue length does an incoming req see
system.mem_ctrls1.wrQLenPdf::47                     0                       # What write queue length does an incoming req see
system.mem_ctrls1.wrQLenPdf::48                     0                       # What write queue length does an incoming req see
system.mem_ctrls1.wrQLenPdf::49                     0                       # What write queue length does an incoming req see
system.mem_ctrls1.wrQLenPdf::50                     0                       # What write queue length does an incoming req see
system.mem_ctrls1.wrQLenPdf::51                     0                       # What write queue length does an incoming req see
system.mem_ctrls1.wrQLenPdf::52                     0                       # What write queue length does an incoming req see
system.mem_ctrls1.wrQLenPdf::53                     0                       # What write queue length does an incoming req see
system.mem_ctrls1.wrQLenPdf::54                     0                       # What write queue length does an incoming req see
system.mem_ctrls1.wrQLenPdf::55                     0                       # What write queue length does an incoming req see
system.mem_ctrls1.wrQLenPdf::56                     0                       # What write queue length does an incoming req see
system.mem_ctrls1.wrQLenPdf::57                     0                       # What write queue length does an incoming req see
system.mem_ctrls1.wrQLenPdf::58                     0                       # What write queue length does an incoming req see
system.mem_ctrls1.wrQLenPdf::59                     0                       # What write queue length does an incoming req see
system.mem_ctrls1.wrQLenPdf::60                     0                       # What write queue length does an incoming req see
system.mem_ctrls1.wrQLenPdf::61                     0                       # What write queue length does an incoming req see
system.mem_ctrls1.wrQLenPdf::62                     0                       # What write queue length does an incoming req see
system.mem_ctrls1.wrQLenPdf::63                     0                       # What write queue length does an incoming req see
system.mem_ctrls1.bytesPerActivate::samples      5487996                       # Bytes accessed per row activation
system.mem_ctrls1.bytesPerActivate::mean   281.694048                       # Bytes accessed per row activation
system.mem_ctrls1.bytesPerActivate::gmean   154.671124                       # Bytes accessed per row activation
system.mem_ctrls1.bytesPerActivate::stdev   330.700425                       # Bytes accessed per row activation
system.mem_ctrls1.bytesPerActivate::0-127      2654574     48.37%     48.37% # Bytes accessed per row activation
system.mem_ctrls1.bytesPerActivate::128-255      1110546     20.24%     68.61% # Bytes accessed per row activation
system.mem_ctrls1.bytesPerActivate::256-383       324221      5.91%     74.51% # Bytes accessed per row activation
system.mem_ctrls1.bytesPerActivate::384-511       178686      3.26%     77.77% # Bytes accessed per row activation
system.mem_ctrls1.bytesPerActivate::512-639       137430      2.50%     80.27% # Bytes accessed per row activation
system.mem_ctrls1.bytesPerActivate::640-767       170878      3.11%     83.39% # Bytes accessed per row activation
system.mem_ctrls1.bytesPerActivate::768-895       243370      4.43%     87.82% # Bytes accessed per row activation
system.mem_ctrls1.bytesPerActivate::896-1023        84780      1.54%     89.37% # Bytes accessed per row activation
system.mem_ctrls1.bytesPerActivate::1024-1151       583511     10.63%    100.00% # Bytes accessed per row activation
system.mem_ctrls1.bytesPerActivate::total      5487996                       # Bytes accessed per row activation
system.mem_ctrls1.rdPerTurnAround::samples       410554                       # Reads before turning the bus around for writes
system.mem_ctrls1.rdPerTurnAround::mean     42.407856                       # Reads before turning the bus around for writes
system.mem_ctrls1.rdPerTurnAround::stdev   154.640846                       # Reads before turning the bus around for writes
system.mem_ctrls1.rdPerTurnAround::0-2047       410473     99.98%     99.98% # Reads before turning the bus around for writes
system.mem_ctrls1.rdPerTurnAround::2048-4095           46      0.01%     99.99% # Reads before turning the bus around for writes
system.mem_ctrls1.rdPerTurnAround::4096-6143           11      0.00%     99.99% # Reads before turning the bus around for writes
system.mem_ctrls1.rdPerTurnAround::6144-8191            8      0.00%    100.00% # Reads before turning the bus around for writes
system.mem_ctrls1.rdPerTurnAround::8192-10239            2      0.00%    100.00% # Reads before turning the bus around for writes
system.mem_ctrls1.rdPerTurnAround::10240-12287            4      0.00%    100.00% # Reads before turning the bus around for writes
system.mem_ctrls1.rdPerTurnAround::12288-14335            2      0.00%    100.00% # Reads before turning the bus around for writes
system.mem_ctrls1.rdPerTurnAround::14336-16383            2      0.00%    100.00% # Reads before turning the bus around for writes
system.mem_ctrls1.rdPerTurnAround::16384-18431            3      0.00%    100.00% # Reads before turning the bus around for writes
system.mem_ctrls1.rdPerTurnAround::22528-24575            1      0.00%    100.00% # Reads before turning the bus around for writes
system.mem_ctrls1.rdPerTurnAround::32768-34815            1      0.00%    100.00% # Reads before turning the bus around for writes
system.mem_ctrls1.rdPerTurnAround::55296-57343            1      0.00%    100.00% # Reads before turning the bus around for writes
system.mem_ctrls1.rdPerTurnAround::total       410554                       # Reads before turning the bus around for writes
system.mem_ctrls1.wrPerTurnAround::samples       410554                       # Writes before turning the bus around for reads
system.mem_ctrls1.wrPerTurnAround::mean     16.427802                       # Writes before turning the bus around for reads
system.mem_ctrls1.wrPerTurnAround::gmean    16.403130                       # Writes before turning the bus around for reads
system.mem_ctrls1.wrPerTurnAround::stdev     0.930462                       # Writes before turning the bus around for reads
system.mem_ctrls1.wrPerTurnAround::1                1      0.00%      0.00% # Writes before turning the bus around for reads
system.mem_ctrls1.wrPerTurnAround::2                1      0.00%      0.00% # Writes before turning the bus around for reads
system.mem_ctrls1.wrPerTurnAround::16          331685     80.79%     80.79% # Writes before turning the bus around for reads
system.mem_ctrls1.wrPerTurnAround::17            9839      2.40%     83.19% # Writes before turning the bus around for reads
system.mem_ctrls1.wrPerTurnAround::18           43880     10.69%     93.87% # Writes before turning the bus around for reads
system.mem_ctrls1.wrPerTurnAround::19           22575      5.50%     99.37% # Writes before turning the bus around for reads
system.mem_ctrls1.wrPerTurnAround::20            2531      0.62%     99.99% # Writes before turning the bus around for reads
system.mem_ctrls1.wrPerTurnAround::21              35      0.01%    100.00% # Writes before turning the bus around for reads
system.mem_ctrls1.wrPerTurnAround::22               7      0.00%    100.00% # Writes before turning the bus around for reads
system.mem_ctrls1.wrPerTurnAround::total       410554                       # Writes before turning the bus around for reads
system.mem_ctrls1.totQLat                347024551205                       # Total ticks spent queuing
system.mem_ctrls1.totMemAccLat           673476282455                       # Total ticks spent from burst creation until serviced by the DRAM
system.mem_ctrls1.totBusLat               87053795000                       # Total ticks spent in databus transfers
system.mem_ctrls1.avgQLat                    19931.62                       # Average queueing delay per DRAM burst
system.mem_ctrls1.avgBusLat                   5000.00                       # Average bus latency per DRAM burst
system.mem_ctrls1.avgMemAccLat               38681.62                       # Average memory access latency per DRAM burst
system.mem_ctrls1.avgRdBW                      251.35                       # Average DRAM read bandwidth in MiByte/s
system.mem_ctrls1.avgWrBW                       97.37                       # Average achieved write bandwidth in MiByte/s
system.mem_ctrls1.avgRdBWSys                   251.35                       # Average system read bandwidth in MiByte/s
system.mem_ctrls1.avgWrBWSys                    97.37                       # Average system write bandwidth in MiByte/s
system.mem_ctrls1.peakBW                     12800.00                       # Theoretical peak bandwidth in MiByte/s
system.mem_ctrls1.busUtil                        2.72                       # Data bus utilization in percentage
system.mem_ctrls1.busUtilRead                    1.96                       # Data bus utilization in percentage for reads
system.mem_ctrls1.busUtilWrite                   0.76                       # Data bus utilization in percentage for writes
system.mem_ctrls1.avgRdQLen                      1.04                       # Average read queue length when enqueuing
system.mem_ctrls1.avgWrQLen                     25.46                       # Average write queue length when enqueuing
system.mem_ctrls1.readRowHits                15842027                       # Number of row buffer hits during reads
system.mem_ctrls1.writeRowHits                2825233                       # Number of row buffer hits during writes
system.mem_ctrls1.readRowHitRate                90.99                       # Row buffer hit rate for reads
system.mem_ctrls1.writeRowHitRate               41.89                       # Row buffer hit rate for writes
system.mem_ctrls1.avgGap                    183527.89                       # Average gap between requests
system.mem_ctrls1.pageHitRate                   77.28                       # Row buffer hit rate, read and write combined
system.mem_ctrls1_0.actEnergy             23014097820                       # Energy for activate commands per rank (pJ)
system.mem_ctrls1_0.preEnergy             12232279290                       # Energy for precharge commands per rank (pJ)
system.mem_ctrls1_0.readEnergy            62129916660                       # Energy for read commands per rank (pJ)
system.mem_ctrls1_0.writeEnergy           21494571480                       # Energy for write commands per rank (pJ)
system.mem_ctrls1_0.refreshEnergy        303053783760.000061                       # Energy for refresh commands per rank (pJ)
system.mem_ctrls1_0.actBackEnergy        362159366130                       # Energy for active background per rank (pJ)
system.mem_ctrls1_0.preBackEnergy         22511985600                       # Energy for precharge background per rank (pJ)
system.mem_ctrls1_0.actPowerDownEnergy   811216506210                       # Energy for active power-down per rank (pJ)
system.mem_ctrls1_0.prePowerDownEnergy   273907569120                       # Energy for precharge power-down per rank (pJ)
system.mem_ctrls1_0.selfRefreshEnergy    298809620340                       # Energy for self refresh per rank (pJ)
system.mem_ctrls1_0.totalEnergy          2190747763050                       # Total energy per rank (pJ)
system.mem_ctrls1_0.averagePower           494.167050                       # Core power per rank (mW)
system.mem_ctrls1_0.totalIdleTime        3579896916525                       # Total Idle time Per DRAM Rank
system.mem_ctrls1_0.memoryStateTime::IDLE  31665350573                       # Time in different power states
system.mem_ctrls1_0.memoryStateTime::REF 128630142000                       # Time in different power states
system.mem_ctrls1_0.memoryStateTime::SREF 1087609942145                       # Time in different power states
system.mem_ctrls1_0.memoryStateTime::PRE_PDN 713300278222                       # Time in different power states
system.mem_ctrls1_0.memoryStateTime::ACT 693020329288                       # Time in different power states
system.mem_ctrls1_0.memoryStateTime::ACT_PDN 1778986725354                       # Time in different power states
system.mem_ctrls1_1.actEnergy             16170215040                       # Energy for activate commands per rank (pJ)
system.mem_ctrls1_1.preEnergy              8594665530                       # Energy for precharge commands per rank (pJ)
system.mem_ctrls1_1.readEnergy            62182902600                       # Energy for read commands per rank (pJ)
system.mem_ctrls1_1.writeEnergy           13711718520                       # Energy for write commands per rank (pJ)
system.mem_ctrls1_1.refreshEnergy        291317232960.000061                       # Energy for refresh commands per rank (pJ)
system.mem_ctrls1_1.actBackEnergy        306603550050                       # Energy for active background per rank (pJ)
system.mem_ctrls1_1.preBackEnergy         20750030400                       # Energy for precharge background per rank (pJ)
system.mem_ctrls1_1.actPowerDownEnergy   812172613380                       # Energy for active power-down per rank (pJ)
system.mem_ctrls1_1.prePowerDownEnergy   271369318080                       # Energy for precharge power-down per rank (pJ)
system.mem_ctrls1_1.selfRefreshEnergy    328878980910                       # Energy for self refresh per rank (pJ)
system.mem_ctrls1_1.totalEnergy          2131950832020                       # Total energy per rank (pJ)
system.mem_ctrls1_1.averagePower           480.904219                       # Core power per rank (mW)
system.mem_ctrls1_1.totalIdleTime        3706359844121                       # Total Idle time Per DRAM Rank
system.mem_ctrls1_1.memoryStateTime::IDLE  29379961676                       # Time in different power states
system.mem_ctrls1_1.memoryStateTime::REF 123645804000                       # Time in different power states
system.mem_ctrls1_1.memoryStateTime::SREF 1218586006483                       # Time in different power states
system.mem_ctrls1_1.memoryStateTime::PRE_PDN 706690273380                       # Time in different power states
system.mem_ctrls1_1.memoryStateTime::ACT 573827157785                       # Time in different power states
system.mem_ctrls1_1.memoryStateTime::ACT_PDN 1781083564258                       # Time in different power states
system.pwrStateResidencyTicks::UNDEFINED 404122107670029                       # Cumulative time (in ticks) in various power states
system.cpu.branchPred.lookups                       5                       # Number of BP lookups
system.cpu.branchPred.condPredicted                 3                       # Number of conditional branches predicted
system.cpu.branchPred.condIncorrect                 3                       # Number of conditional branches incorrect
system.cpu.branchPred.BTBLookups                    2                       # Number of BTB lookups
system.cpu.branchPred.BTBHits                       1                       # Number of BTB hits
system.cpu.branchPred.BTBCorrect                    0                       # Number of correct BTB predictions (this stat may not work properly.
system.cpu.branchPred.BTBHitPct             50.000000                       # BTB Hit Percentage
system.cpu.branchPred.usedRAS                       0                       # Number of times the RAS was used to get a target.
system.cpu.branchPred.RASInCorrect                  0                       # Number of incorrect RAS predictions.
system.cpu.branchPred.indirectLookups               0                       # Number of indirect predictor lookups.
system.cpu.branchPred.indirectHits                  0                       # Number of indirect target hits.
system.cpu.branchPred.indirectMisses                0                       # Number of indirect misses.
system.cpu.branchPredindirectMispredicted            0                       # Number of mispredicted indirect branches.
system.cpu_voltage_domain.voltage                   1                       # Voltage in Volts
system.cpu_clk_domain.clock                       333                       # Clock period in ticks
system.cpu.dtb.fetch_hits                           0                       # ITB hits
system.cpu.dtb.fetch_misses                         0                       # ITB misses
system.cpu.dtb.fetch_acv                            0                       # ITB acv
system.cpu.dtb.fetch_accesses                       0                       # ITB accesses
system.cpu.dtb.read_hits                            0                       # DTB read hits
system.cpu.dtb.read_misses                          0                       # DTB read misses
system.cpu.dtb.read_acv                             0                       # DTB read access violations
system.cpu.dtb.read_accesses                        0                       # DTB read accesses
system.cpu.dtb.write_hits                           1                       # DTB write hits
system.cpu.dtb.write_misses                         0                       # DTB write misses
system.cpu.dtb.write_acv                            0                       # DTB write access violations
system.cpu.dtb.write_accesses                       1                       # DTB write accesses
system.cpu.dtb.data_hits                            1                       # DTB hits
system.cpu.dtb.data_misses                          0                       # DTB misses
system.cpu.dtb.data_acv                             0                       # DTB access violations
system.cpu.dtb.data_accesses                        1                       # DTB accesses
system.cpu.itb.fetch_hits                           6                       # ITB hits
system.cpu.itb.fetch_misses                         0                       # ITB misses
system.cpu.itb.fetch_acv                            0                       # ITB acv
system.cpu.itb.fetch_accesses                       6                       # ITB accesses
system.cpu.itb.read_hits                            0                       # DTB read hits
system.cpu.itb.read_misses                          0                       # DTB read misses
system.cpu.itb.read_acv                             0                       # DTB read access violations
system.cpu.itb.read_accesses                        0                       # DTB read accesses
system.cpu.itb.write_hits                           0                       # DTB write hits
system.cpu.itb.write_misses                         0                       # DTB write misses
system.cpu.itb.write_acv                            0                       # DTB write access violations
system.cpu.itb.write_accesses                       0                       # DTB write accesses
system.cpu.itb.data_hits                            0                       # DTB hits
system.cpu.itb.data_misses                          0                       # DTB misses
system.cpu.itb.data_acv                             0                       # DTB access violations
system.cpu.itb.data_accesses                        0                       # DTB accesses
system.cpu.workload.num_syscalls                    0                       # Number of system calls
system.cpu.pwrStateResidencyTicks::ON    4433212767582                       # Cumulative time (in ticks) in various power states
system.cpu.numCycles                              370                       # number of cpu cycles simulated
system.cpu.numWorkItemsStarted                      0                       # number of work items this cpu started
system.cpu.numWorkItemsCompleted                    0                       # number of work items this cpu completed
system.cpu.fetch.icacheStallCycles                 23                       # Number of cycles fetch is stalled on an Icache miss
system.cpu.fetch.Insts                             17                       # Number of instructions fetch has processed
system.cpu.fetch.Branches                           5                       # Number of branches that fetch encountered
system.cpu.fetch.predictedBranches                  1                       # Number of branches that fetch has predicted taken
system.cpu.fetch.Cycles                             3                       # Number of cycles fetch has run and was not squashing or blocked
system.cpu.fetch.SquashCycles                       9                       # Number of cycles fetch has spent squashing
system.cpu.fetch.PendingDrainCycles                 3                       # Number of cycles fetch has spent waiting on pipes to drain
system.cpu.fetch.CacheLines                         6                       # Number of cache lines fetched
system.cpu.fetch.IcacheSquashes                     4                       # Number of outstanding Icache misses that were squashed
system.cpu.fetch.rateDist::samples                 33                       # Number of instructions fetched each cycle (Total)
[...]
system.switch_cpus_1.iq.rate                 0.387190                       # Inst issue rate
system.switch_cpus_1.iq.fu_busy_cnt           2096114                       # FU busy when requested
system.switch_cpus_1.iq.fu_busy_rate         0.008280                       # FU busy rate (busy events/executed inst)
system.switch_cpus_1.iq.int_inst_queue_reads   1162154182                       # Number of integer instruction queue reads
system.switch_cpus_1.iq.int_inst_queue_writes    333947684                       # Number of integer instruction queue writes
system.switch_cpus_1.iq.int_inst_queue_wakeup_accesses    237073570                       # Number of integer instruction queue wakeup accesses
system.switch_cpus_1.iq.fp_inst_queue_reads         6362                       # Number of floating instruction queue reads
system.switch_cpus_1.iq.fp_inst_queue_writes       227255                       # Number of floating instruction queue writes
system.switch_cpus_1.iq.fp_inst_queue_wakeup_accesses          617                       # Number of floating instruction queue wakeup accesses
system.switch_cpus_1.iq.int_alu_accesses    255231887                       # Number of integer alu accesses
system.switch_cpus_1.iq.fp_alu_accesses          3032                       # Number of floating point alu accesses
system.switch_cpus_1.iew.lsq.thread0.forwLoads          258                       # Number of loads that had data forwarded from stores
system.switch_cpus_1.iew.lsq.thread0.invAddrLoads            0                       # Number of loads ignored due to an invalid address
system.switch_cpus_1.iew.lsq.thread0.squashedLoads      7531216                       # Number of loads squashed
system.switch_cpus_1.iew.lsq.thread0.ignoredResponses            1                       # Number of memory responses ignored because the instruction is squashed
system.switch_cpus_1.iew.lsq.thread0.memOrderViolation           20                       # Number of memory ordering violations
system.switch_cpus_1.iew.lsq.thread0.squashedStores      1191035                       # Number of stores squashed
system.switch_cpus_1.iew.lsq.thread0.invAddrSwpfs            0                       # Number of software prefetches ignored due to an invalid address
system.switch_cpus_1.iew.lsq.thread0.blockedLoads            0                       # Number of blocked loads due to partial load-store forwarding
system.switch_cpus_1.iew.lsq.thread0.rescheduledLoads            0                       # Number of loads that were rescheduled
system.switch_cpus_1.iew.lsq.thread0.cacheBlocked     10085263                       # Number of times an access to memory failed due to the cache being blocked
system.switch_cpus_1.iew.iewIdleCycles              0                       # Number of cycles IEW is idle
system.switch_cpus_1.iew.iewSquashCycles      1036529                       # Number of cycles IEW is squashing
system.switch_cpus_1.iew.iewBlockCycles     425448420                       # Number of cycles IEW is blocking
system.switch_cpus_1.iew.iewUnblockCycles      3812420                       # Number of cycles IEW is unblocking
system.switch_cpus_1.iew.iewDispatchedInsts    267146191                       # Number of instructions dispatched to IQ
system.switch_cpus_1.iew.iewDispSquashedInsts         6682                       # Number of squashed instructions skipped by dispatch
system.switch_cpus_1.iew.iewDispLoadInsts     30808244                       # Number of dispatched load instructions
system.switch_cpus_1.iew.iewDispStoreInsts      7299261                       # Number of dispatched store instructions
system.switch_cpus_1.iew.iewDispNonSpecInsts            0                       # Number of dispatched non-speculative instructions
system.switch_cpus_1.iew.iewIQFullEvents      1614260                       # Number of times the IQ has become full, causing a stall
system.switch_cpus_1.iew.iewLSQFullEvents       543028                       # Number of times the LSQ has become full, causing a stall
system.switch_cpus_1.iew.memOrderViolationEvents           20                       # Number of memory order violations
system.switch_cpus_1.iew.predictedTakenIncorrect       851237                       # Number of branches that were predicted taken incorrectly
system.switch_cpus_1.iew.predictedNotTakenIncorrect       301903                       # Number of branches that were predicted not taken incorrectly
system.switch_cpus_1.iew.branchMispredicts      1153140                       # Number of branch mispredicts detected at execute
system.switch_cpus_1.iew.iewExecutedInsts    251651300                       # Number of executed instructions
system.switch_cpus_1.iew.iewExecLoadInsts     39508081                       # Number of load instructions executed
system.switch_cpus_1.iew.iewExecSquashedInsts      1487501                       # Number of squashed instructions skipped in execute
system.switch_cpus_1.iew.exec_swp                   0                       # number of swp insts executed
system.switch_cpus_1.iew.exec_nop               58676                       # number of nop insts executed
system.switch_cpus_1.iew.exec_refs           45967888                       # number of memory reference insts executed
system.switch_cpus_1.iew.exec_branches       51186746                       # Number of branches executed
system.switch_cpus_1.iew.exec_stores          6459807                       # Number of stores executed
system.switch_cpus_1.iew.exec_rate           0.384915                       # Inst execution rate
system.switch_cpus_1.iew.wb_sent            237667699                       # cumulative count of insts sent to commit
system.switch_cpus_1.iew.wb_count           237074187                       # cumulative count of insts written-back
system.switch_cpus_1.iew.wb_producers       132843788                       # num instructions producing a value
system.switch_cpus_1.iew.wb_consumers       162644515                       # num instructions consuming a value
system.switch_cpus_1.iew.wb_rate             0.362618                       # insts written-back per cycle
system.switch_cpus_1.iew.wb_fanout           0.816774                       # average fanout of values written-back
system.switch_cpus_1.commit.commitSquashedInsts     66644319                       # The number of squashed insts skipped by commit
system.switch_cpus_1.commit.branchMispredicts       991012                       # The number of times a branch was mispredicted
system.switch_cpus_1.commit.committed_per_cycle::samples    644675772                       # Number of insts commited each cycle
system.switch_cpus_1.commit.committed_per_cycle::mean     0.310234                       # Number of insts commited each cycle
system.switch_cpus_1.commit.committed_per_cycle::stdev     1.351152                       # Number of insts commited each cycle
system.switch_cpus_1.commit.committed_per_cycle::underflows            0      0.00%      0.00% # Number of insts commited each cycle
system.switch_cpus_1.commit.committed_per_cycle::0    596666457     92.55%     92.55% # Number of insts commited each cycle
system.switch_cpus_1.commit.committed_per_cycle::1      9644859      1.50%     94.05% # Number of insts commited each cycle
system.switch_cpus_1.commit.committed_per_cycle::2     15743728      2.44%     96.49% # Number of insts commited each cycle
system.switch_cpus_1.commit.committed_per_cycle::3       914522      0.14%     96.63% # Number of insts commited each cycle
system.switch_cpus_1.commit.committed_per_cycle::4      1820339      0.28%     96.92% # Number of insts commited each cycle
system.switch_cpus_1.commit.committed_per_cycle::5       313633      0.05%     96.96% # Number of insts commited each cycle
system.switch_cpus_1.commit.committed_per_cycle::6      4040675      0.63%     97.59% # Number of insts commited each cycle
system.switch_cpus_1.commit.committed_per_cycle::7      1221731      0.19%     97.78% # Number of insts commited each cycle
system.switch_cpus_1.commit.committed_per_cycle::8     14309828      2.22%    100.00% # Number of insts commited each cycle
system.switch_cpus_1.commit.committed_per_cycle::overflows            0      0.00%    100.00% # Number of insts commited each cycle
system.switch_cpus_1.commit.committed_per_cycle::min_value            0                       # Number of insts commited each cycle
system.switch_cpus_1.commit.committed_per_cycle::max_value            8                       # Number of insts commited each cycle
system.switch_cpus_1.commit.committed_per_cycle::total    644675772                       # Number of insts commited each cycle
system.switch_cpus_1.commit.committedInsts    200000193                       # Number of instructions committed
system.switch_cpus_1.commit.committedOps    200000193                       # Number of ops (including micro ops) committed
system.switch_cpus_1.commit.swp_count               0                       # Number of s/w prefetches committed
system.switch_cpus_1.commit.refs             29385242                       # Number of memory references committed
system.switch_cpus_1.commit.loads            23277016                       # Number of loads committed
system.switch_cpus_1.commit.membars                 0                       # Number of memory barriers committed
system.switch_cpus_1.commit.branches         42359254                       # Number of branches committed
system.switch_cpus_1.commit.fp_insts              209                       # Number of committed floating point instructions.
system.switch_cpus_1.commit.int_insts       200000000                       # Number of committed integer instructions.
system.switch_cpus_1.commit.function_calls           57                       # Number of function calls committed.
system.switch_cpus_1.commit.op_class_0::No_OpClass          192      0.00%      0.00% # Class of committed instruction
system.switch_cpus_1.commit.op_class_0::IntAlu    170614759     85.31%     85.31% # Class of committed instruction
system.switch_cpus_1.commit.op_class_0::IntMult            0      0.00%     85.31% # Class of committed instruction
system.switch_cpus_1.commit.op_class_0::IntDiv            0      0.00%     85.31% # Class of committed instruction
system.switch_cpus_1.commit.op_class_0::FloatAdd            0      0.00%     85.31% # Class of committed instruction
system.switch_cpus_1.commit.op_class_0::FloatCmp            0      0.00%     85.31% # Class of committed instruction
system.switch_cpus_1.commit.op_class_0::FloatCvt            0      0.00%     85.31% # Class of committed instruction
system.switch_cpus_1.commit.op_class_0::FloatMult            0      0.00%     85.31% # Class of committed instruction
system.switch_cpus_1.commit.op_class_0::FloatMultAcc            0      0.00%     85.31% # Class of committed instruction
system.switch_cpus_1.commit.op_class_0::FloatDiv            0      0.00%     85.31% # Class of committed instruction
system.switch_cpus_1.commit.op_class_0::FloatMisc            0      0.00%     85.31% # Class of committed instruction
system.switch_cpus_1.commit.op_class_0::FloatSqrt            0      0.00%     85.31% # Class of committed instruction
system.switch_cpus_1.commit.op_class_0::SimdAdd            0      0.00%     85.31% # Class of committed instruction
system.switch_cpus_1.commit.op_class_0::SimdAddAcc            0      0.00%     85.31% # Class of committed instruction
system.switch_cpus_1.commit.op_class_0::SimdAlu            0      0.00%     85.31% # Class of committed instruction
system.switch_cpus_1.commit.op_class_0::SimdCmp            0      0.00%     85.31% # Class of committed instruction
system.switch_cpus_1.commit.op_class_0::SimdCvt            0      0.00%     85.31% # Class of committed instruction
system.switch_cpus_1.commit.op_class_0::SimdMisc            0      0.00%     85.31% # Class of committed instruction
system.switch_cpus_1.commit.op_class_0::SimdMult            0      0.00%     85.31% # Class of committed instruction
system.switch_cpus_1.commit.op_class_0::SimdMultAcc            0      0.00%     85.31% # Class of committed instruction
system.switch_cpus_1.commit.op_class_0::SimdShift            0      0.00%     85.31% # Class of committed instruction
system.switch_cpus_1.commit.op_class_0::SimdShiftAcc            0      0.00%     85.31% # Class of committed instruction
system.switch_cpus_1.commit.op_class_0::SimdSqrt            0      0.00%     85.31% # Class of committed instruction
system.switch_cpus_1.commit.op_class_0::SimdFloatAdd            0      0.00%     85.31% # Class of committed instruction
system.switch_cpus_1.commit.op_class_0::SimdFloatAlu            0      0.00%     85.31% # Class of committed instruction
system.switch_cpus_1.commit.op_class_0::SimdFloatCmp            0      0.00%     85.31% # Class of committed instruction
system.switch_cpus_1.commit.op_class_0::SimdFloatCvt            0      0.00%     85.31% # Class of committed instruction
system.switch_cpus_1.commit.op_class_0::SimdFloatDiv            0      0.00%     85.31% # Class of committed instruction
system.switch_cpus_1.commit.op_class_0::SimdFloatMisc            0      0.00%     85.31% # Class of committed instruction
system.switch_cpus_1.commit.op_class_0::SimdFloatMult            0      0.00%     85.31% # Class of committed instruction
system.switch_cpus_1.commit.op_class_0::SimdFloatMultAcc            0      0.00%     85.31% # Class of committed instruction
system.switch_cpus_1.commit.op_class_0::SimdFloatSqrt            0      0.00%     85.31% # Class of committed instruction
system.switch_cpus_1.commit.op_class_0::MemRead     23276939     11.64%     96.95% # Class of committed instruction
system.switch_cpus_1.commit.op_class_0::MemWrite      6108094      3.05%    100.00% # Class of committed instruction
system.switch_cpus_1.commit.op_class_0::FloatMemRead           77      0.00%    100.00% # Class of committed instruction
system.switch_cpus_1.commit.op_class_0::FloatMemWrite          132      0.00%    100.00% # Class of committed instruction
system.switch_cpus_1.commit.op_class_0::IprAccess            0      0.00%    100.00% # Class of committed instruction
system.switch_cpus_1.commit.op_class_0::InstPrefetch            0      0.00%    100.00% # Class of committed instruction
system.switch_cpus_1.commit.op_class_0::total    200000193                       # Class of committed instruction
system.switch_cpus_1.commit.bw_lim_events     14309828                       # number cycles where commit BW limit reached
system.switch_cpus_1.rob.rob_reads          896418969                       # The number of ROB reads
system.switch_cpus_1.rob.rob_writes         542397153                       # The number of ROB writes
system.switch_cpus_1.timesIdled                     6                       # Number of times that the entire CPU went into an idle state and unscheduled itself
system.switch_cpus_1.idleCycles                  2771                       # Total number of cycles that the CPU has spent unscheduled due to idling
system.switch_cpus_1.committedInsts         200000001                       # Number of Instructions Simulated
system.switch_cpus_1.committedOps           200000001                       # Number of Ops (including micro ops) Simulated
system.switch_cpus_1.cpi                     3.268922                       # CPI: Cycles Per Instruction
system.switch_cpus_1.cpi_total               3.268922                       # CPI: Total CPI of All Threads
system.switch_cpus_1.ipc                     0.305911                       # IPC: Instructions Per Cycle
system.switch_cpus_1.ipc_total               0.305911                       # IPC: Total IPC of All Threads
system.switch_cpus_1.int_regfile_reads      382082813                       # number of integer regfile reads
system.switch_cpus_1.int_regfile_writes     179463925                       # number of integer regfile writes
system.switch_cpus_1.fp_regfile_reads             804                       # number of floating regfile reads
system.switch_cpus_1.fp_regfile_writes            291                       # number of floating regfile writes
system.tol3bus.snoop_filter.tot_requests     70088789                       # Total number of requests made to the snoop filter.
system.tol3bus.snoop_filter.hit_single_requests     35042322                       # Number of requests hitting in the snoop filter with a single holder of the requested data.
system.tol3bus.snoop_filter.hit_multi_requests            0                       # Number of requests hitting in the snoop filter with multiple (>1) holders of the requested data.
system.tol3bus.snoop_filter.tot_snoops        1055554                       # Total number of snoops made to the snoop filter.
system.tol3bus.snoop_filter.hit_single_snoops      1055554                       # Number of snoops hitting in the snoop filter with a single holder of the requested data.
system.tol3bus.snoop_filter.hit_multi_snoops            0                       # Number of snoops hitting in the snoop filter with multiple (>1) holders of the requested data.
system.tol3bus.pwrStateResidencyTicks::UNDEFINED 404122107670029                       # Cumulative time (in ticks) in various power states
system.tol3bus.trans_dist::ReadResp          35046268                       # Transaction distribution
system.tol3bus.trans_dist::WritebackDirty     27128307                       # Transaction distribution
system.tol3bus.trans_dist::CleanEvict        43026737                       # Transaction distribution
system.tol3bus.trans_dist::ReadExReq              197                       # Transaction distribution
system.tol3bus.trans_dist::ReadExResp             197                       # Transaction distribution
system.tol3bus.trans_dist::ReadSharedReq     35046270                       # Transaction distribution
system.tol3bus.pkt_count_system.cpu.l2.mem_side::system.l3.cpu_side    105135254                       # Packet count per connected master and slave (bytes)
system.tol3bus.pkt_size_system.cpu.l2.mem_side::system.l3.cpu_side   3115803136                       # Cumulative packet size per connected master and slave (bytes)
system.tol3bus.snoops                        35112722                       # Total snoops (count)
system.tol3bus.snoopTraffic                 863382272                       # Total snoop traffic (bytes)
system.tol3bus.snoop_fanout::samples         70159189                       # Request fanout histogram
system.tol3bus.snoop_fanout::mean            0.015045                       # Request fanout histogram
system.tol3bus.snoop_fanout::stdev           0.121732                       # Request fanout histogram
system.tol3bus.snoop_fanout::underflows             0      0.00%      0.00% # Request fanout histogram
system.tol3bus.snoop_fanout::0               69103635     98.50%     98.50% # Request fanout histogram
system.tol3bus.snoop_fanout::1                1055554      1.50%    100.00% # Request fanout histogram
system.tol3bus.snoop_fanout::overflows              0      0.00%    100.00% # Request fanout histogram
system.tol3bus.snoop_fanout::min_value              0                       # Request fanout histogram
system.tol3bus.snoop_fanout::max_value              1                       # Request fanout histogram
system.tol3bus.snoop_fanout::total           70159189                       # Request fanout histogram
system.tol3bus.reqLayer0.occupancy        27881007084                       # Layer occupancy (ticks)
system.tol3bus.reqLayer0.utilization              0.6                       # Layer utilization (%)
system.tol3bus.respLayer0.occupancy       23340945690                       # Layer occupancy (ticks)
system.tol3bus.respLayer0.utilization             0.5                       # Layer utilization (%)

---------- End Simulation Statistics   ----------
