
---------- Begin Simulation Statistics ----------
sim_seconds                                  1.027619                       # Number of seconds simulated
sim_ticks                                1027619232120                       # Number of ticks simulated
final_tick                               111353837986377                       # Number of ticks from beginning of simulation (restored from checkpoints and never reset)
sim_freq                                 1000000000000                       # Frequency of simulated ticks
host_inst_rate                                 703666                       # Simulator instruction rate (inst/s)
host_op_rate                                   703666                       # Simulator op (including micro ops) rate (op/s)
host_tick_rate                              602584005                       # Simulator tick rate (ticks/s)
host_mem_usage                                2384996                       # Number of bytes of host memory used
host_seconds                                  1705.35                       # Real time elapsed on the host
sim_insts                                  1200000011                       # Number of instructions simulated
sim_ops                                    1200000011                       # Number of ops (including micro ops) simulated
system.voltage_domain.voltage                       1                       # Voltage in Volts
system.clk_domain.clock                          1000                       # Clock period in ticks
system.mem_ctrls0.pwrStateResidencyTicks::UNDEFINED 111353837986377                       # Cumulative time (in ticks) in various power states
system.mem_ctrls0.bytes_read::cpu.inst            128                       # Number of bytes read from this memory
system.mem_ctrls0.bytes_read::cpu.data            192                       # Number of bytes read from this memory
system.mem_ctrls0.bytes_read::switch_cpus.inst        16768                       # Number of bytes read from this memory
system.mem_ctrls0.bytes_read::switch_cpus.data      2470016                       # Number of bytes read from this memory
system.mem_ctrls0.bytes_read::switch_cpus_1.inst         5312                       # Number of bytes read from this memory
system.mem_ctrls0.bytes_read::switch_cpus_1.data      2457984                       # Number of bytes read from this memory
system.mem_ctrls0.bytes_read::total           4950400                       # Number of bytes read from this memory
system.mem_ctrls0.bytes_inst_read::cpu.inst          128                       # Number of instructions bytes read from this memory
system.mem_ctrls0.bytes_inst_read::switch_cpus.inst        16768                       # Number of instructions bytes read from this memory
system.mem_ctrls0.bytes_inst_read::switch_cpus_1.inst         5312                       # Number of instructions bytes read from this memory
system.mem_ctrls0.bytes_inst_read::total        22208                       # Number of instructions bytes read from this memory
system.mem_ctrls0.bytes_written::writebacks      2782848                       # Number of bytes written to this memory
system.mem_ctrls0.bytes_written::total        2782848                       # Number of bytes written to this memory
system.mem_ctrls0.num_reads::cpu.inst               2                       # Number of read requests responded to by this memory
system.mem_ctrls0.num_reads::cpu.data               3                       # Number of read requests responded to by this memory
system.mem_ctrls0.num_reads::switch_cpus.inst          262                       # Number of read requests responded to by this memory
system.mem_ctrls0.num_reads::switch_cpus.data        38594                       # Number of read requests responded to by this memory
system.mem_ctrls0.num_reads::switch_cpus_1.inst           83                       # Number of read requests responded to by this memory
system.mem_ctrls0.num_reads::switch_cpus_1.data        38406                       # Number of read requests responded to by this memory
system.mem_ctrls0.num_reads::total              77350                       # Number of read requests responded to by this memory
system.mem_ctrls0.num_writes::writebacks        43482                       # Number of write requests responded to by this memory
system.mem_ctrls0.num_writes::total             43482                       # Number of write requests responded to by this memory
system.mem_ctrls0.bw_read::cpu.inst               125                       # Total read bandwidth from this memory (bytes/s)
system.mem_ctrls0.bw_read::cpu.data               187                       # Total read bandwidth from this memory (bytes/s)
system.mem_ctrls0.bw_read::switch_cpus.inst        16317                       # Total read bandwidth from this memory (bytes/s)
system.mem_ctrls0.bw_read::switch_cpus.data      2403630                       # Total read bandwidth from this memory (bytes/s)
system.mem_ctrls0.bw_read::switch_cpus_1.inst         5169                       # Total read bandwidth from this memory (bytes/s)
system.mem_ctrls0.bw_read::switch_cpus_1.data      2391921                       # Total read bandwidth from this memory (bytes/s)
system.mem_ctrls0.bw_read::total              4817349                       # Total read bandwidth from this memory (bytes/s)
system.mem_ctrls0.bw_inst_read::cpu.inst          125                       # Instruction read bandwidth from this memory (bytes/s)
system.mem_ctrls0.bw_inst_read::switch_cpus.inst        16317                       # Instruction read bandwidth from this memory (bytes/s)
system.mem_ctrls0.bw_inst_read::switch_cpus_1.inst         5169                       # Instruction read bandwidth from this memory (bytes/s)
system.mem_ctrls0.bw_inst_read::total           21611                       # Instruction read bandwidth from this memory (bytes/s)
system.mem_ctrls0.bw_write::writebacks        2708054                       # Write bandwidth from this memory (bytes/s)
system.mem_ctrls0.bw_write::total             2708054                       # Write bandwidth from this memory (bytes/s)
system.mem_ctrls0.bw_total::writebacks        2708054                       # Total bandwidth to/from this memory (bytes/s)
system.mem_ctrls0.bw_total::cpu.inst              125                       # Total bandwidth to/from this memory (bytes/s)
system.mem_ctrls0.bw_total::cpu.data              187                       # Total bandwidth to/from this memory (bytes/s)
system.mem_ctrls0.bw_total::switch_cpus.inst        16317                       # Total bandwidth to/from this memory (bytes/s)
system.mem_ctrls0.bw_total::switch_cpus.data      2403630                       # Total bandwidth to/from this memory (bytes/s)
system.mem_ctrls0.bw_total::switch_cpus_1.inst         5169                       # Total bandwidth to/from this memory (bytes/s)
system.mem_ctrls0.bw_total::switch_cpus_1.data      2391921                       # Total bandwidth to/from this memory (bytes/s)
system.mem_ctrls0.bw_total::total             7525402                       # Total bandwidth to/from this memory (bytes/s)
system.mem_ctrls0.readReqs                      77350                       # Number of read requests accepted
system.mem_ctrls0.writeReqs                     43482                       # Number of write requests accepted
system.mem_ctrls0.readBursts                    77350                       # Number of DRAM read bursts, including those serviced by the write queue
system.mem_ctrls0.writeBursts                   43482                       # Number of DRAM write bursts, including those merged in the write queue
system.mem_ctrls0.bytesReadDRAM               4948224                       # Total number of bytes read from DRAM
system.mem_ctrls0.bytesReadWrQ                   2176                       # Total number of bytes read from write queue
system.mem_ctrls0.bytesWritten                2780864                       # Total number of bytes written to DRAM
system.mem_ctrls0.bytesReadSys                4950400                       # Total read bytes from the system interface side
system.mem_ctrls0.bytesWrittenSys             2782848                       # Total written bytes from the system interface side
system.mem_ctrls0.servicedByWrQ                    34                       # Number of DRAM read bursts serviced by the write queue
system.mem_ctrls0.mergedWrBursts                    0                       # Number of DRAM write bursts merged with an existing one
system.mem_ctrls0.neitherReadNorWriteReqs            0                       # Number of requests that are neither read nor write
system.mem_ctrls0.perBankRdBursts::0             4850                       # Per bank write bursts
system.mem_ctrls0.perBankRdBursts::1             4128                       # Per bank write bursts
system.mem_ctrls0.perBankRdBursts::2             4591                       # Per bank write bursts
system.mem_ctrls0.perBankRdBursts::3             5720                       # Per bank write bursts
system.mem_ctrls0.perBankRdBursts::4             5431                       # Per bank write bursts
system.mem_ctrls0.perBankRdBursts::5             4811                       # Per bank write bursts
system.mem_ctrls0.perBankRdBursts::6             4330                       # Per bank write bursts
system.mem_ctrls0.perBankRdBursts::7             4998                       # Per bank write bursts
system.mem_ctrls0.perBankRdBursts::8             4812                       # Per bank write bursts
system.mem_ctrls0.perBankRdBursts::9             4214                       # Per bank write bursts
system.mem_ctrls0.perBankRdBursts::10            5051                       # Per bank write bursts
system.mem_ctrls0.perBankRdBursts::11            5242                       # Per bank write bursts
system.mem_ctrls0.perBankRdBursts::12            5398                       # Per bank write bursts
system.mem_ctrls0.perBankRdBursts::13            4660                       # Per bank write bursts
system.mem_ctrls0.perBankRdBursts::14            4358                       # Per bank write bursts
system.mem_ctrls0.perBankRdBursts::15            4722                       # Per bank write bursts
system.mem_ctrls0.perBankWrBursts::0             2771                       # Per bank write bursts
system.mem_ctrls0.perBankWrBursts::1             1933                       # Per bank write bursts
system.mem_ctrls0.perBankWrBursts::2             2553                       # Per bank write bursts
system.mem_ctrls0.perBankWrBursts::3             3466                       # Per bank write bursts
system.mem_ctrls0.perBankWrBursts::4             3367                       # Per bank write bursts
system.mem_ctrls0.perBankWrBursts::5             2783                       # Per bank write bursts
system.mem_ctrls0.perBankWrBursts::6             2132                       # Per bank write bursts
system.mem_ctrls0.perBankWrBursts::7             2797                       # Per bank write bursts
system.mem_ctrls0.perBankWrBursts::8             2654                       # Per bank write bursts
system.mem_ctrls0.perBankWrBursts::9             2161                       # Per bank write bursts
system.mem_ctrls0.perBankWrBursts::10            2869                       # Per bank write bursts
system.mem_ctrls0.perBankWrBursts::11            3229                       # Per bank write bursts
system.mem_ctrls0.perBankWrBursts::12            3240                       # Per bank write bursts
system.mem_ctrls0.perBankWrBursts::13            2498                       # Per bank write bursts
system.mem_ctrls0.perBankWrBursts::14            2280                       # Per bank write bursts
system.mem_ctrls0.perBankWrBursts::15            2718                       # Per bank write bursts
system.mem_ctrls0.numRdRetry                        0                       # Number of times read queue was full causing retry
system.mem_ctrls0.numWrRetry                        0                       # Number of times write queue was full causing retry
system.mem_ctrls0.totGap                 1027618751601                       # Total gap between requests
system.mem_ctrls0.readPktSize::0                    0                       # Read request sizes (log2)
system.mem_ctrls0.readPktSize::1                    0                       # Read request sizes (log2)
system.mem_ctrls0.readPktSize::2                    0                       # Read request sizes (log2)
system.mem_ctrls0.readPktSize::3                    0                       # Read request sizes (log2)
system.mem_ctrls0.readPktSize::4                    0                       # Read request sizes (log2)
system.mem_ctrls0.readPktSize::5                    0                       # Read request sizes (log2)
system.mem_ctrls0.readPktSize::6                77350                       # Read request sizes (log2)
system.mem_ctrls0.writePktSize::0                   0                       # Write request sizes (log2)
system.mem_ctrls0.writePktSize::1                   0                       # Write request sizes (log2)
system.mem_ctrls0.writePktSize::2                   0                       # Write request sizes (log2)
system.mem_ctrls0.writePktSize::3                   0                       # Write request sizes (log2)
system.mem_ctrls0.writePktSize::4                   0                       # Write request sizes (log2)
system.mem_ctrls0.writePktSize::5                   0                       # Write request sizes (log2)
system.mem_ctrls0.writePktSize::6               43482                       # Write request sizes (log2)
system.mem_ctrls0.rdQLenPdf::0                  69983                       # What read queue length does an incoming req see
system.mem_ctrls0.rdQLenPdf::1                   6877                       # What read queue length does an incoming req see
system.mem_ctrls0.rdQLenPdf::2                    454                       # What read queue length does an incoming req see
system.mem_ctrls0.rdQLenPdf::3                      1                       # What read queue length does an incoming req see
system.mem_ctrls0.rdQLenPdf::4                      1                       # What read queue length does an incoming req see
system.mem_ctrls0.rdQLenPdf::5                      0                       # What read queue length does an incoming req see
system.mem_ctrls0.rdQLenPdf::6                      0                       # What read queue length does an incoming req see
system.mem_ctrls0.rdQLenPdf::7                      0                       # What read queue length does an incoming req see
system.mem_ctrls0.rdQLenPdf::8                      0                       # What read queue length does an incoming req see
system.mem_ctrls0.rdQLenPdf::9                      0                       # What read queue length does an incoming req see
system.mem_ctrls0.rdQLenPdf::10                     0                       # What read queue length does an incoming req see
system.mem_ctrls0.rdQLenPdf::11                     0                       # What read queue length does an incoming req see
system.mem_ctrls0.rdQLenPdf::12                     0                       # What read queue length does an incoming req see
system.mem_ctrls0.rdQLenPdf::13                     0                       # What read queue length does an incoming req see
system.mem_ctrls0.rdQLenPdf::14                     0                       # What read queue length does an incoming req see
system.mem_ctrls0.rdQLenPdf::15                     0                       # What read queue length does an incoming req see
system.mem_ctrls0.rdQLenPdf::16                     0                       # What read queue length does an incoming req see
system.mem_ctrls0.rdQLenPdf::17                     0                       # What read queue length does an incoming req see
system.mem_ctrls0.rdQLenPdf::18                     0                       # What read queue length does an incoming req see
system.mem_ctrls0.rdQLenPdf::19                     0                       # What read queue length does an incoming req see
system.mem_ctrls0.rdQLenPdf::20                     0                       # What read queue length does an incoming req see
system.mem_ctrls0.rdQLenPdf::21                     0                       # What read queue length does an incoming req see
system.mem_ctrls0.rdQLenPdf::22                     0                       # What read queue length does an incoming req see
system.mem_ctrls0.rdQLenPdf::23                     0                       # What read queue length does an incoming req see
system.mem_ctrls0.rdQLenPdf::24                     0                       # What read queue length does an incoming req see
system.mem_ctrls0.rdQLenPdf::25                     0                       # What read queue length does an incoming req see
system.mem_ctrls0.rdQLenPdf::26                     0                       # What read queue length does an incoming req see
system.mem_ctrls0.rdQLenPdf::27                     0                       # What read queue length does an incoming req see
system.mem_ctrls0.rdQLenPdf::28                     0                       # What read queue length does an incoming req see
system.mem_ctrls0.rdQLenPdf::29                     0                       # What read queue length does an incoming req see
system.mem_ctrls0.rdQLenPdf::30                     0                       # What read queue length does an incoming req see
system.mem_ctrls0.rdQLenPdf::31                     0                       # What read queue length does an incoming req see
system.mem_ctrls0.wrQLenPdf::0                      2                       # What write queue length does an incoming req see
system.mem_ctrls0.wrQLenPdf::1                      2                       # What write queue length does an incoming req see
system.mem_ctrls0.wrQLenPdf::2                      2                       # What write queue length does an incoming req see
system.mem_ctrls0.wrQLenPdf::3                      2                       # What write queue length does an incoming req see
system.mem_ctrls0.wrQLenPdf::4                      2                       # What write queue length does an incoming req see
system.mem_ctrls0.wrQLenPdf::5                      2                       # What write queue length does an incoming req see
system.mem_ctrls0.wrQLenPdf::6                      2                       # What write queue length does an incoming req see
system.mem_ctrls0.wrQLenPdf::7                      2                       # What write queue length does an incoming req see
system.mem_ctrls0.wrQLenPdf::8                      2                       # What write queue length does an incoming req see
system.mem_ctrls0.wrQLenPdf::9                      2                       # What write queue length does an incoming req see
system.mem_ctrls0.wrQLenPdf::10                     2                       # What write queue length does an incoming req see
system.mem_ctrls0.wrQLenPdf::11                     2                       # What write queue length does an incoming req see
system.mem_ctrls0.wrQLenPdf::12                     2                       # What write queue length does an incoming req see
system.mem_ctrls0.wrQLenPdf::13                     2                       # What write queue length does an incoming req see
system.mem_ctrls0.wrQLenPdf::14                     2                       # What write queue length does an incoming req see
system.mem_ctrls0.wrQLenPdf::15                  2120                       # What write queue length does an incoming req see
system.mem_ctrls0.wrQLenPdf::16                  2214                       # What write queue length does an incoming req see
system.mem_ctrls0.wrQLenPdf::17                  2393                       # What write queue length does an incoming req see
system.mem_ctrls0.wrQLenPdf::18                  2433                       # What write queue length does an incoming req see
system.mem_ctrls0.wrQLenPdf::19                  2448                       # What write queue length does an incoming req see
system.mem_ctrls0.wrQLenPdf::20                  2440                       # What write queue length does an incoming req see
system.mem_ctrls0.wrQLenPdf::21                  2444                       # What write queue length does an incoming req see
system.mem_ctrls0.wrQLenPdf::22                  2453                       # What write queue length does an incoming req see
system.mem_ctrls0.wrQLenPdf::23                  2460                       # What write queue length does an incoming req see
system.mem_ctrls0.wrQLenPdf::24                  2477                       # What write queue length does an incoming req see
system.mem_ctrls0.wrQLenPdf::25                  2462                       # What write queue length does an incoming req see
system.mem_ctrls0.wrQLenPdf::26                  2442                       # What write queue length does an incoming req see
system.mem_ctrls0.wrQLenPdf::27                  2431                       # What write queue length does an incoming req see
system.mem_ctrls0.wrQLenPdf::28                  2444                       # What write queue length does an incoming req see
system.mem_ctrls0.wrQLenPdf::29                  2457                       # What write queue length does an incoming req see
system.mem_ctrls0.wrQLenPdf::30                  2479                       # What write queue length does an incoming req see
system.mem_ctrls0.wrQLenPdf::31                  2402                       # What write queue length does an incoming req see
system.mem_ctrls0.wrQLenPdf::32                  2400                       # What write queue length does an incoming req see
system.mem_ctrls0.wrQLenPdf::33                    33                       # What write queue length does an incoming req see
system.mem_ctrls0.wrQLenPdf::34                    13                       # What write queue length does an incoming req see
system.mem_ctrls0.wrQLenPdf::35                     4                       # What write queue length does an incoming req see
system.mem_ctrls0.wrQLenPdf::36                     2                       # What write queue length does an incoming req see
system.mem_ctrls0.wrQLenPdf::37                     1                       # What write queue length does an incoming req see
system.mem_ctrls0.wrQLenPdf::38                     0                       # What write queue length does an incoming req see
system.mem_ctrls0.wrQLenPdf::39                     0                       # What write queue length does an incoming req see
system.mem_ctrls0.wrQLenPdf::40                     0                       # What write queue length does an incoming req see
system.mem_ctrls0.wrQLenPdf::41                     0                       # What write queue length does an incoming req see
system.mem_ctrls0.wrQLenPdf::42                     0                       # What write queue length does an incoming req see
system.mem_ctrls0.wrQLenPdf::43                     0                       # What write queue length does an incoming req see
system.mem_ctrls0.wrQLenPdf::44                     0                       # What write queue length does an incoming req see
system.mem_ctrls0.wrQLenPdf::45                     0                       # What write queue length does an incoming req see
system.mem_ctrls0.wrQLenPdf::46                     0                       # What write queue length does an incoming req see
system.mem_ctrls0.wrQLenPdf::47                     0                       # What write queue length does an incoming req see
system.mem_ctrls0.wrQLenPdf::48                     0                       # What write queue length does an incoming req see
system.mem_ctrls0.wrQLenPdf::49                     0                       # What write queue length does an incoming req see
system.mem_ctrls0.wrQLenPdf::50                     0                       # What write queue length does an incoming req see
system.mem_ctrls0.wrQLenPdf::51                     0                       # What write queue length does an incoming req see
system.mem_ctrls0.wrQLenPdf::52                     0                       # What write queue length does an incoming req see
system.mem_ctrls0.wrQLenPdf::53                     0                       # What write queue length does an incoming req see
system.mem_ctrls0.wrQLenPdf::54                     0                       # What write queue length does an incoming req see
system.mem_ctrls0.wrQLenPdf::55                     0                       # What write queue length does an incoming req see
system.mem_ctrls0.wrQLenPdf::56                     0                       # What write queue length does an incoming req see
system.mem_ctrls0.wrQLenPdf::57                     0                       # What write queue length does an incoming req see
system.mem_ctrls0.wrQLenPdf::58                     0                       # What write queue length does an incoming req see
system.mem_ctrls0.wrQLenPdf::59                     0                       # What write queue length does an incoming req see
system.mem_ctrls0.wrQLenPdf::60                     0                       # What write queue length does an incoming req see
system.mem_ctrls0.wrQLenPdf::61                     0                       # What write queue length does an incoming req see
system.mem_ctrls0.wrQLenPdf::62                     0                       # What write queue length does an incoming req see
system.mem_ctrls0.wrQLenPdf::63                     0                       # What write queue length does an incoming req see
system.mem_ctrls0.bytesPerActivate::samples        49124                       # Bytes accessed per row activation
system.mem_ctrls0.bytesPerActivate::mean   157.338327                       # Bytes accessed per row activation
system.mem_ctrls0.bytesPerActivate::gmean   124.016593                       # Bytes accessed per row activation
system.mem_ctrls0.bytesPerActivate::stdev   140.834555                       # Bytes accessed per row activation
system.mem_ctrls0.bytesPerActivate::0-127        18066     36.78%     36.78% # Bytes accessed per row activation
system.mem_ctrls0.bytesPerActivate::128-255        24442     49.76%     86.53% # Bytes accessed per row activation
system.mem_ctrls0.bytesPerActivate::256-383         3026      6.16%     92.69% # Bytes accessed per row activation
system.mem_ctrls0.bytesPerActivate::384-511         1521      3.10%     95.79% # Bytes accessed per row activation
system.mem_ctrls0.bytesPerActivate::512-639          821      1.67%     97.46% # Bytes accessed per row activation
system.mem_ctrls0.bytesPerActivate::640-767          521      1.06%     98.52% # Bytes accessed per row activation
system.mem_ctrls0.bytesPerActivate::768-895          353      0.72%     99.24% # Bytes accessed per row activation
system.mem_ctrls0.bytesPerActivate::896-1023          242      0.49%     99.73% # Bytes accessed per row activation
system.mem_ctrls0.bytesPerActivate::1024-1151          132      0.27%    100.00% # Bytes accessed per row activation
system.mem_ctrls0.bytesPerActivate::total        49124                       # Bytes accessed per row activation
system.mem_ctrls0.rdPerTurnAround::samples         2401                       # Reads before turning the bus around for writes
system.mem_ctrls0.rdPerTurnAround::mean     32.194086                       # Reads before turning the bus around for writes
system.mem_ctrls0.rdPerTurnAround::stdev   652.602775                       # Reads before turning the bus around for writes
system.mem_ctrls0.rdPerTurnAround::0-1023         2400     99.96%     99.96% # Reads before turning the bus around for writes
system.mem_ctrls0.rdPerTurnAround::31744-32767            1      0.04%    100.00% # Reads before turning the bus around for writes
system.mem_ctrls0.rdPerTurnAround::total         2401                       # Reads before turning the bus around for writes
system.mem_ctrls0.wrPerTurnAround::samples         2401                       # Writes before turning the bus around for reads
system.mem_ctrls0.wrPerTurnAround::mean     18.097043                       # Writes before turning the bus around for reads
system.mem_ctrls0.wrPerTurnAround::gmean    18.073543                       # Writes before turning the bus around for reads
system.mem_ctrls0.wrPerTurnAround::stdev     0.923397                       # Writes before turning the bus around for reads
system.mem_ctrls0.wrPerTurnAround::16             206      8.58%      8.58% # Writes before turning the bus around for reads
system.mem_ctrls0.wrPerTurnAround::17              65      2.71%     11.29% # Writes before turning the bus around for reads
system.mem_ctrls0.wrPerTurnAround::18            1576     65.64%     76.93% # Writes before turning the bus around for reads
system.mem_ctrls0.wrPerTurnAround::19             446     18.58%     95.50% # Writes before turning the bus around for reads
system.mem_ctrls0.wrPerTurnAround::20              78      3.25%     98.75% # Writes before turning the bus around for reads
system.mem_ctrls0.wrPerTurnAround::21              19      0.79%     99.54% # Writes before turning the bus around for reads
system.mem_ctrls0.wrPerTurnAround::22               8      0.33%     99.88% # Writes before turning the bus around for reads
system.mem_ctrls0.wrPerTurnAround::23               1      0.04%     99.92% # Writes before turning the bus around for reads
system.mem_ctrls0.wrPerTurnAround::25               2      0.08%    100.00% # Writes before turning the bus around for reads
system.mem_ctrls0.wrPerTurnAround::total         2401                       # Writes before turning the bus around for reads
system.mem_ctrls0.totQLat                  1417195408                       # Total ticks spent queuing
system.mem_ctrls0.totMemAccLat             2866870408                       # Total ticks spent from burst creation until serviced by the DRAM
system.mem_ctrls0.totBusLat                 386580000                       # Total ticks spent in databus transfers
system.mem_ctrls0.avgQLat                    18329.91                       # Average queueing delay per DRAM burst
system.mem_ctrls0.avgBusLat                   5000.00                       # Average bus latency per DRAM burst
system.mem_ctrls0.avgMemAccLat               37079.91                       # Average memory access latency per DRAM burst
system.mem_ctrls0.avgRdBW                        4.82                       # Average DRAM read bandwidth in MiByte/s
system.mem_ctrls0.avgWrBW                        2.71                       # Average achieved write bandwidth in MiByte/s
system.mem_ctrls0.avgRdBWSys                     4.82                       # Average system read bandwidth in MiByte/s
system.mem_ctrls0.avgWrBWSys                     2.71                       # Average system write bandwidth in MiByte/s
system.mem_ctrls0.peakBW                     12800.00                       # Theoretical peak bandwidth in MiByte/s
system.mem_ctrls0.busUtil                        0.06                       # Data bus utilization in percentage
system.mem_ctrls0.busUtilRead                    0.04                       # Data bus utilization in percentage for reads
system.mem_ctrls0.busUtilWrite                   0.02                       # Data bus utilization in percentage for writes
system.mem_ctrls0.avgRdQLen                      1.00                       # Average read queue length when enqueuing
system.mem_ctrls0.avgWrQLen                      0.82                       # Average write queue length when enqueuing
system.mem_ctrls0.readRowHits                   51992                       # Number of row buffer hits during reads
system.mem_ctrls0.writeRowHits                  19651                       # Number of row buffer hits during writes
system.mem_ctrls0.readRowHitRate                67.25                       # Row buffer hit rate for reads
system.mem_ctrls0.writeRowHitRate               45.19                       # Row buffer hit rate for writes
system.mem_ctrls0.avgGap                   8504524.89                       # Average gap between requests
system.mem_ctrls0.pageHitRate                   59.31                       # Row buffer hit rate, read and write combined
system.mem_ctrls0_0.actEnergy               175051380                       # Energy for activate commands per rank (pJ)
system.mem_ctrls0_0.preEnergy                93042015                       # Energy for precharge commands per rank (pJ)
system.mem_ctrls0_0.readEnergy              277453260                       # Energy for read commands per rank (pJ)
system.mem_ctrls0_0.writeEnergy             113806440                       # Energy for write commands per rank (pJ)
system.mem_ctrls0_0.refreshEnergy        4807099440.000001                       # Energy for refresh commands per rank (pJ)
system.mem_ctrls0_0.actBackEnergy          2417018880                       # Energy for active background per rank (pJ)
system.mem_ctrls0_0.preBackEnergy           129526560                       # Energy for precharge background per rank (pJ)
system.mem_ctrls0_0.actPowerDownEnergy    18782430240                       # Energy for active power-down per rank (pJ)
system.mem_ctrls0_0.prePowerDownEnergy     4622816160                       # Energy for precharge power-down per rank (pJ)
system.mem_ctrls0_0.selfRefreshEnergy    232655540820                       # Energy for self refresh per rank (pJ)
system.mem_ctrls0_0.totalEnergy          264074033175                       # Total energy per rank (pJ)
system.mem_ctrls0_0.averagePower           256.976538                       # Core power per rank (mW)
system.mem_ctrls0_0.totalIdleTime        1021944266189                       # Total Idle time Per DRAM Rank
system.mem_ctrls0_0.memoryStateTime::IDLE    124204670                       # Time in different power states
system.mem_ctrls0_0.memoryStateTime::REF   2035230000                       # Time in different power states
system.mem_ctrls0_0.memoryStateTime::SREF 968752774870                       # Time in different power states
system.mem_ctrls0_0.memoryStateTime::PRE_PDN  12038156597                       # Time in different power states
system.mem_ctrls0_0.memoryStateTime::ACT   3477710078                       # Time in different power states
system.mem_ctrls0_0.memoryStateTime::ACT_PDN  41191155905                       # Time in different power states
system.mem_ctrls0_1.actEnergy               175693980                       # Energy for activate commands per rank (pJ)
system.mem_ctrls0_1.preEnergy                93383565                       # Energy for precharge commands per rank (pJ)
system.mem_ctrls0_1.readEnergy              274582980                       # Energy for read commands per rank (pJ)
system.mem_ctrls0_1.writeEnergy             113007780                       # Energy for write commands per rank (pJ)
system.mem_ctrls0_1.refreshEnergy        4700766720.000001                       # Energy for refresh commands per rank (pJ)
system.mem_ctrls0_1.actBackEnergy          2475193650                       # Energy for active background per rank (pJ)
system.mem_ctrls0_1.preBackEnergy           123634560                       # Energy for precharge background per rank (pJ)
system.mem_ctrls0_1.actPowerDownEnergy    18478779840                       # Energy for active power-down per rank (pJ)
system.mem_ctrls0_1.prePowerDownEnergy     4459282080                       # Energy for precharge power-down per rank (pJ)
system.mem_ctrls0_1.selfRefreshEnergy    232862787435                       # Energy for self refresh per rank (pJ)
system.mem_ctrls0_1.totalEnergy          263758385940                       # Total energy per rank (pJ)
system.mem_ctrls0_1.averagePower           256.669374                       # Core power per rank (mW)
system.mem_ctrls0_1.totalIdleTime        1021827462841                       # Total Idle time Per DRAM Rank
system.mem_ctrls0_1.memoryStateTime::IDLE    114882789                       # Time in different power states
system.mem_ctrls0_1.memoryStateTime::REF   1989914000                       # Time in different power states
system.mem_ctrls0_1.memoryStateTime::SREF 969730033370                       # Time in different power states
system.mem_ctrls0_1.memoryStateTime::PRE_PDN  11612722614                       # Time in different power states
system.mem_ctrls0_1.memoryStateTime::ACT   3649157634                       # Time in different power states
system.mem_ctrls0_1.memoryStateTime::ACT_PDN  40522521713                       # Time in different power states
system.mem_ctrls1.pwrStateResidencyTicks::UNDEFINED 111353837986377                       # Cumulative time (in ticks) in various power states
system.mem_ctrls1.bytes_read::cpu.inst             64                       # Number of bytes read from this memory
system.mem_ctrls1.bytes_read::cpu.data             64                       # Number of bytes read from this memory
system.mem_ctrls1.bytes_read::switch_cpus.inst        16832                       # Number of bytes read from this memory
system.mem_ctrls1.bytes_read::switch_cpus.data      2466112                       # Number of bytes read from this memory
system.mem_ctrls1.bytes_read::switch_cpus_1.inst         5056                       # Number of bytes read from this memory
system.mem_ctrls1.bytes_read::switch_cpus_1.data      2461632                       # Number of bytes read from this memory
system.mem_ctrls1.bytes_read::total           4949760                       # Number of bytes read from this memory
system.mem_ctrls1.bytes_inst_read::cpu.inst           64                       # Number of instructions bytes read from this memory
system.mem_ctrls1.bytes_inst_read::switch_cpus.inst        16832                       # Number of instructions bytes read from this memory
system.mem_ctrls1.bytes_inst_read::switch_cpus_1.inst         5056                       # Number of instructions bytes read from this memory
system.mem_ctrls1.bytes_inst_read::total        21952                       # Number of instructions bytes read from this memory
system.mem_ctrls1.bytes_written::writebacks      2787392                       # Number of bytes written to this memory
system.mem_ctrls1.bytes_written::total        2787392                       # Number of bytes written to this memory
system.mem_ctrls1.num_reads::cpu.inst               1                       # Number of read requests responded to by this memory
system.mem_ctrls1.num_reads::cpu.data               1                       # Number of read requests responded to by this memory
system.mem_ctrls1.num_reads::switch_cpus.inst          263                       # Number of read requests responded to by this memory
system.mem_ctrls1.num_reads::switch_cpus.data        38533                       # Number of read requests responded to by this memory
system.mem_ctrls1.num_reads::switch_cpus_1.inst           79                       # Number of read requests responded to by this memory
system.mem_ctrls1.num_reads::switch_cpus_1.data        38463                       # Number of read requests responded to by this memory
system.mem_ctrls1.num_reads::total              77340                       # Number of read requests responded to by this memory
system.mem_ctrls1.num_writes::writebacks        43553                       # Number of write requests responded to by this memory
system.mem_ctrls1.num_writes::total             43553                       # Number of write requests responded to by this memory
system.mem_ctrls1.bw_read::cpu.inst                62                       # Total read bandwidth from this memory (bytes/s)
system.mem_ctrls1.bw_read::cpu.data                62                       # Total read bandwidth from this memory (bytes/s)
system.mem_ctrls1.bw_read::switch_cpus.inst        16380                       # Total read bandwidth from this memory (bytes/s)
system.mem_ctrls1.bw_read::switch_cpus.data      2399831                       # Total read bandwidth from this memory (bytes/s)
system.mem_ctrls1.bw_read::switch_cpus_1.inst         4920                       # Total read bandwidth from this memory (bytes/s)
system.mem_ctrls1.bw_read::switch_cpus_1.data      2395471                       # Total read bandwidth from this memory (bytes/s)
system.mem_ctrls1.bw_read::total              4816726                       # Total read bandwidth from this memory (bytes/s)
system.mem_ctrls1.bw_inst_read::cpu.inst           62                       # Instruction read bandwidth from this memory (bytes/s)
system.mem_ctrls1.bw_inst_read::switch_cpus.inst        16380                       # Instruction read bandwidth from this memory (bytes/s)
system.mem_ctrls1.bw_inst_read::switch_cpus_1.inst         4920                       # Instruction read bandwidth from this memory (bytes/s)
system.mem_ctrls1.bw_inst_read::total           21362                       # Instruction read bandwidth from this memory (bytes/s)
system.mem_ctrls1.bw_write::writebacks        2712476                       # Write bandwidth from this memory (bytes/s)
system.mem_ctrls1.bw_write::total             2712476                       # Write bandwidth from this memory (bytes/s)
system.mem_ctrls1.bw_total::writebacks        2712476                       # Total bandwidth to/from this memory (bytes/s)
system.mem_ctrls1.bw_total::cpu.inst               62                       # Total bandwidth to/from this memory (bytes/s)
system.mem_ctrls1.bw_total::cpu.data               62                       # Total bandwidth to/from this memory (bytes/s)
system.mem_ctrls1.bw_total::switch_cpus.inst        16380                       # Total bandwidth to/from this memory (bytes/s)
system.mem_ctrls1.bw_total::switch_cpus.data      2399831                       # Total bandwidth to/from this memory (bytes/s)
system.mem_ctrls1.bw_total::switch_cpus_1.inst         4920                       # Total bandwidth to/from this memory (bytes/s)
system.mem_ctrls1.bw_total::switch_cpus_1.data      2395471                       # Total bandwidth to/from this memory (bytes/s)
system.mem_ctrls1.bw_total::total             7529201                       # Total bandwidth to/from this memory (bytes/s)
system.mem_ctrls1.readReqs                      77340                       # Number of read requests accepted
system.mem_ctrls1.writeReqs                     43553                       # Number of write requests accepted
system.mem_ctrls1.readBursts                    77340                       # Number of DRAM read bursts, including those serviced by the write queue
system.mem_ctrls1.writeBursts                   43553                       # Number of DRAM write bursts, including those merged in the write queue
system.mem_ctrls1.bytesReadDRAM               4947968                       # Total number of bytes read from DRAM
system.mem_ctrls1.bytesReadWrQ                   1792                       # Total number of bytes read from write queue
system.mem_ctrls1.bytesWritten                2786112                       # Total number of bytes written to DRAM
system.mem_ctrls1.bytesReadSys                4949760                       # Total read bytes from the system interface side
system.mem_ctrls1.bytesWrittenSys             2787392                       # Total written bytes from the system interface side
system.mem_ctrls1.servicedByWrQ                    28                       # Number of DRAM read bursts serviced by the write queue
system.mem_ctrls1.mergedWrBursts                    0                       # Number of DRAM write bursts merged with an existing one
system.mem_ctrls1.neitherReadNorWriteReqs            0                       # Number of requests that are neither read nor write
system.mem_ctrls1.perBankRdBursts::0             4848                       # Per bank write bursts
system.mem_ctrls1.perBankRdBursts::1             4136                       # Per bank write bursts
system.mem_ctrls1.perBankRdBursts::2             4572                       # Per bank write bursts
system.mem_ctrls1.perBankRdBursts::3             5636                       # Per bank write bursts
system.mem_ctrls1.perBankRdBursts::4             5477                       # Per bank write bursts
system.mem_ctrls1.perBankRdBursts::5             4792                       # Per bank write bursts
system.mem_ctrls1.perBankRdBursts::6             4377                       # Per bank write bursts
system.mem_ctrls1.perBankRdBursts::7             4968                       # Per bank write bursts
system.mem_ctrls1.perBankRdBursts::8             4817                       # Per bank write bursts
system.mem_ctrls1.perBankRdBursts::9             4235                       # Per bank write bursts
system.mem_ctrls1.perBankRdBursts::10            5007                       # Per bank write bursts
system.mem_ctrls1.perBankRdBursts::11            5299                       # Per bank write bursts
system.mem_ctrls1.perBankRdBursts::12            5415                       # Per bank write bursts
system.mem_ctrls1.perBankRdBursts::13            4649                       # Per bank write bursts
system.mem_ctrls1.perBankRdBursts::14            4384                       # Per bank write bursts
system.mem_ctrls1.perBankRdBursts::15            4700                       # Per bank write bursts
system.mem_ctrls1.perBankWrBursts::0             2742                       # Per bank write bursts
system.mem_ctrls1.perBankWrBursts::1             1962                       # Per bank write bursts
system.mem_ctrls1.perBankWrBursts::2             2540                       # Per bank write bursts
system.mem_ctrls1.perBankWrBursts::3             3393                       # Per bank write bursts
system.mem_ctrls1.perBankWrBursts::4             3440                       # Per bank write bursts
system.mem_ctrls1.perBankWrBursts::5             2769                       # Per bank write bursts
system.mem_ctrls1.perBankWrBursts::6             2194                       # Per bank write bursts
system.mem_ctrls1.perBankWrBursts::7             2804                       # Per bank write bursts
system.mem_ctrls1.perBankWrBursts::8             2661                       # Per bank write bursts
system.mem_ctrls1.perBankWrBursts::9             2173                       # Per bank write bursts
system.mem_ctrls1.perBankWrBursts::10            2818                       # Per bank write bursts
system.mem_ctrls1.perBankWrBursts::11            3291                       # Per bank write bursts
system.mem_ctrls1.perBankWrBursts::12            3254                       # Per bank write bursts
system.mem_ctrls1.perBankWrBursts::13            2498                       # Per bank write bursts
system.mem_ctrls1.perBankWrBursts::14            2305                       # Per bank write bursts
system.mem_ctrls1.perBankWrBursts::15            2689                       # Per bank write bursts
system.mem_ctrls1.numRdRetry                        0                       # Number of times read queue was full causing retry
system.mem_ctrls1.numWrRetry                        0                       # Number of times write queue was full causing retry
system.mem_ctrls1.totGap                 1027612872153                       # Total gap between requests
system.mem_ctrls1.readPktSize::0                    0                       # Read request sizes (log2)
system.mem_ctrls1.readPktSize::1                    0                       # Read request sizes (log2)
system.mem_ctrls1.readPktSize::2                    0                       # Read request sizes (log2)
system.mem_ctrls1.readPktSize::3                    0                       # Read request sizes (log2)
system.mem_ctrls1.readPktSize::4                    0                       # Read request sizes (log2)
system.mem_ctrls1.readPktSize::5                    0                       # Read request sizes (log2)
system.mem_ctrls1.readPktSize::6                77340                       # Read request sizes (log2)
system.mem_ctrls1.writePktSize::0                   0                       # Write request sizes (log2)
system.mem_ctrls1.writePktSize::1                   0                       # Write request sizes (log2)
system.mem_ctrls1.writePktSize::2                   0                       # Write request sizes (log2)
system.mem_ctrls1.writePktSize::3                   0                       # Write request sizes (log2)
system.mem_ctrls1.writePktSize::4                   0                       # Write request sizes (log2)
system.mem_ctrls1.writePktSize::5                   0                       # Write request sizes (log2)
system.mem_ctrls1.writePktSize::6               43553                       # Write request sizes (log2)
system.mem_ctrls1.rdQLenPdf::0                  69969                       # What read queue length does an incoming req see
system.mem_ctrls1.rdQLenPdf::1                   6911                       # What read queue length does an incoming req see
system.mem_ctrls1.rdQLenPdf::2                    431                       # What read queue length does an incoming req see
system.mem_ctrls1.rdQLenPdf::3                      1                       # What read queue length does an incoming req see
system.mem_ctrls1.rdQLenPdf::4                      0                       # What read queue length does an incoming req see
system.mem_ctrls1.rdQLenPdf::5                      0                       # What read queue length does an incoming req see
system.mem_ctrls1.rdQLenPdf::6                      0                       # What read queue length does an incoming req see
system.mem_ctrls1.rdQLenPdf::7                      0                       # What read queue length does an incoming req see
system.mem_ctrls1.rdQLenPdf::8                      0                       # What read queue length does an incoming req see
system.mem_ctrls1.rdQLenPdf::9                      0                       # What read queue length does an incoming req see
system.mem_ctrls1.rdQLenPdf::10                     0                       # What read queue length does an incoming req see
system.mem_ctrls1.rdQLenPdf::11                     0                       # What read queue length does an incoming req see
system.mem_ctrls1.rdQLenPdf::12                     0                       # What read queue length does an incoming req see
system.mem_ctrls1.rdQLenPdf::13                     0                       # What read queue length does an incoming req see
system.mem_ctrls1.rdQLenPdf::14                     0                       # What read queue length does an incoming req see
system.mem_ctrls1.rdQLenPdf::15                     0                       # What read queue length does an incoming req see
system.mem_ctrls1.rdQLenPdf::16                     0                       # What read queue length does an incoming req see
system.mem_ctrls1.rdQLenPdf::17                     0                       # What read queue length does an incoming req see
system.mem_ctrls1.rdQLenPdf::18                     0                       # What read queue length does an incoming req see
system.mem_ctrls1.rdQLenPdf::19                     0                       # What read queue length does an incoming req see
system.mem_ctrls1.rdQLenPdf::20                     0                       # What read queue length does an incoming req see
system.mem_ctrls1.rdQLenPdf::21                     0                       # What read queue length does an incoming req see
system.mem_ctrls1.rdQLenPdf::22                     0                       # What read queue length does an incoming req see
system.mem_ctrls1.rdQLenPdf::23                     0                       # What read queue length does an incoming req see
system.mem_ctrls1.rdQLenPdf::24                     0                       # What read queue length does an incoming req see
system.mem_ctrls1.rdQLenPdf::25                     0                       # What read queue length does an incoming req see
system.mem_ctrls1.rdQLenPdf::26                     0                       # What read queue length does an incoming req see
system.mem_ctrls1.rdQLenPdf::27                     0                       # What read queue length does an incoming req see
system.mem_ctrls1.rdQLenPdf::28                     0                       # What read queue length does an incoming req see
system.mem_ctrls1.rdQLenPdf::29                     0                       # What read queue length does an incoming req see
system.mem_ctrls1.rdQLenPdf::30                     0                       # What read queue length does an incoming req see
system.mem_ctrls1.rdQLenPdf::31                     0                       # What read queue length does an incoming req see
system.mem_ctrls1.wrQLenPdf::0                      2                       # What write queue length does an incoming req see
system.mem_ctrls1.wrQLenPdf::1                      2                       # What write queue length does an incoming req see
system.mem_ctrls1.wrQLenPdf::2                      2                       # What write queue length does an incoming req see
system.mem_ctrls1.wrQLenPdf::3                      2                       # What write queue length does an incoming req see
system.mem_ctrls1.wrQLenPdf::4                      2                       # What write queue length does an incoming req see
system.mem_ctrls1.wrQLenPdf::5                      2                       # What write queue length does an incoming req see
system.mem_ctrls1.wrQLenPdf::6                      2                       # What write queue length does an incoming req see
system.mem_ctrls1.wrQLenPdf::7                      2                       # What write queue length does an incoming req see
system.mem_ctrls1.wrQLenPdf::8                      2                       # What write queue length does an incoming req see
system.mem_ctrls1.wrQLenPdf::9                      2                       # What write queue length does an incoming req see
system.mem_ctrls1.wrQLenPdf::10                     2                       # What write queue length does an incoming req see
system.mem_ctrls1.wrQLenPdf::11                     2                       # What write queue length does an incoming req see
system.mem_ctrls1.wrQLenPdf::12                     2                       # What write queue length does an incoming req see
system.mem_ctrls1.wrQLenPdf::13                     2                       # What write queue length does an incoming req see
system.mem_ctrls1.wrQLenPdf::14                     2                       # What write queue length does an incoming req see
system.mem_ctrls1.wrQLenPdf::15                  2112                       # What write queue length does an incoming req see
system.mem_ctrls1.wrQLenPdf::16                  2195                       # What write queue length does an incoming req see
system.mem_ctrls1.wrQLenPdf::17                  2412                       # What write queue length does an incoming req see
system.mem_ctrls1.wrQLenPdf::18                  2441                       # What write queue length does an incoming req see
system.mem_ctrls1.wrQLenPdf::19                  2440                       # What write queue length does an incoming req see
system.mem_ctrls1.wrQLenPdf::20                  2441                       # What write queue length does an incoming req see
system.mem_ctrls1.wrQLenPdf::21                  2447                       # What write queue length does an incoming req see
system.mem_ctrls1.wrQLenPdf::22                  2453                       # What write queue length does an incoming req see
system.mem_ctrls1.wrQLenPdf::23                  2484                       # What write queue length does an incoming req see
system.mem_ctrls1.wrQLenPdf::24                  2485                       # What write queue length does an incoming req see
system.mem_ctrls1.wrQLenPdf::25                  2475                       # What write queue length does an incoming req see
system.mem_ctrls1.wrQLenPdf::26                  2453                       # What write queue length does an incoming req see
system.mem_ctrls1.wrQLenPdf::27                  2437                       # What write queue length does an incoming req see
system.mem_ctrls1.wrQLenPdf::28                  2438                       # What write queue length does an incoming req see
system.mem_ctrls1.wrQLenPdf::29                  2445                       # What write queue length does an incoming req see
system.mem_ctrls1.wrQLenPdf::30                  2489                       # What write queue length does an incoming req see
system.mem_ctrls1.wrQLenPdf::31                  2411                       # What write queue length does an incoming req see
system.mem_ctrls1.wrQLenPdf::32                  2410                       # What write queue length does an incoming req see
system.mem_ctrls1.wrQLenPdf::33                    30                       # What write queue length does an incoming req see
system.mem_ctrls1.wrQLenPdf::34                    12                       # What write queue length does an incoming req see
system.mem_ctrls1.wrQLenPdf::35                     6                       # What write queue length does an incoming req see
system.mem_ctrls1.wrQLenPdf::36                     1                       # What write queue length does an incoming req see
system.mem_ctrls1.wrQLenPdf::37                     1                       # What write queue length does an incoming req see
system.mem_ctrls1.wrQLenPdf::38                     1                       # What write queue length does an incoming req see
system.mem_ctrls1.wrQLenPdf::39                     1                       # What write queue length does an incoming req see
system.mem_ctrls1.wrQLenPdf::40                     1                       # What write queue length does an incoming req see
system.mem_ctrls1.wrQLenPdf::41                     1                       # What write queue length does an incoming req see
system.mem_ctrls1.wrQLenPdf::42                     1                       # What write queue length does an incoming req see
system.mem_ctrls1.wrQLenPdf::43                     0                       # What write queue length does an incoming req see
system.mem_ctrls1.wrQLenPdf::44                     0                       # What write queue length does an incoming req see
system.mem_ctrls1.wrQLenPdf::45                     0                       # What write queue length does an incoming req see
system.mem_ctrls1.wrQLenPdf::46                     0                       # What write queue length does an incoming req see
system.mem_ctrls1.wrQLenPdf::47                     0                       # What write queue length does an incoming req see
system.mem_ctrls1.wrQLenPdf::48                     0                       # What write queue length does an incoming req see
system.mem_ctrls1.wrQLenPdf::49                     0                       # What write queue length does an incoming req see
system.mem_ctrls1.wrQLenPdf::50                     0                       # What write queue length does an incoming req see
system.mem_ctrls1.wrQLenPdf::51                     0                       # What write queue length does an incoming req see
system.mem_ctrls1.wrQLenPdf::52                     0                       # What write queue length does an incoming req see
system.mem_ctrls1.wrQLenPdf::53                     0                       # What write queue length does an incoming req see
system.mem_ctrls1.wrQLenPdf::54                     0                       # What write queue length does an incoming req see
system.mem_ctrls1.wrQLenPdf::55                     0                       # What write queue length does an incoming req see
system.mem_ctrls1.wrQLenPdf::56                     0                       # What write queue length does an incoming req see
system.mem_ctrls1.wrQLenPdf::57                     0                       # What write queue length does an incoming req see
system.mem_ctrls1.wrQLenPdf::58                     0                       # What write queue length does an incoming req see
system.mem_ctrls1.wrQLenPdf::59                     0                       # What write queue length does an incoming req see
system.mem_ctrls1.wrQLenPdf::60                     0                       # What write queue length does an incoming req see
system.mem_ctrls1.wrQLenPdf::61                     0                       # What write queue length does an incoming req see
system.mem_ctrls1.wrQLenPdf::62                     0                       # What write queue length does an incoming req see
system.mem_ctrls1.wrQLenPdf::63                     0                       # What write queue length does an incoming req see
system.mem_ctrls1.bytesPerActivate::samples        49295                       # Bytes accessed per row activation
system.mem_ctrls1.bytesPerActivate::mean   156.893803                       # Bytes accessed per row activation
system.mem_ctrls1.bytesPerActivate::gmean   123.585331                       # Bytes accessed per row activation
system.mem_ctrls1.bytesPerActivate::stdev   141.047254                       # Bytes accessed per row activation
system.mem_ctrls1.bytesPerActivate::0-127        18257     37.04%     37.04% # Bytes accessed per row activation
system.mem_ctrls1.bytesPerActivate::128-255        24439     49.58%     86.61% # Bytes accessed per row activation
system.mem_ctrls1.bytesPerActivate::256-383         3060      6.21%     92.82% # Bytes accessed per row activation
system.mem_ctrls1.bytesPerActivate::384-511         1438      2.92%     95.74% # Bytes accessed per row activation
system.mem_ctrls1.bytesPerActivate::512-639          819      1.66%     97.40% # Bytes accessed per row activation
system.mem_ctrls1.bytesPerActivate::640-767          544      1.10%     98.50% # Bytes accessed per row activation
system.mem_ctrls1.bytesPerActivate::768-895          368      0.75%     99.25% # Bytes accessed per row activation
system.mem_ctrls1.bytesPerActivate::896-1023          239      0.48%     99.73% # Bytes accessed per row activation
system.mem_ctrls1.bytesPerActivate::1024-1151          131      0.27%    100.00% # Bytes accessed per row activation
system.mem_ctrls1.bytesPerActivate::total        49295                       # Bytes accessed per row activation
system.mem_ctrls1.rdPerTurnAround::samples         2411                       # Reads before turning the bus around for writes
system.mem_ctrls1.rdPerTurnAround::mean     32.066363                       # Reads before turning the bus around for writes
system.mem_ctrls1.rdPerTurnAround::stdev   651.539890                       # Reads before turning the bus around for writes
system.mem_ctrls1.rdPerTurnAround::0-1023         2410     99.96%     99.96% # Reads before turning the bus around for writes
system.mem_ctrls1.rdPerTurnAround::31744-32767            1      0.04%    100.00% # Reads before turning the bus around for writes
system.mem_ctrls1.rdPerTurnAround::total         2411                       # Reads before turning the bus around for writes
system.mem_ctrls1.wrPerTurnAround::samples         2411                       # Writes before turning the bus around for reads
system.mem_ctrls1.wrPerTurnAround::mean     18.055993                       # Writes before turning the bus around for reads
system.mem_ctrls1.wrPerTurnAround::gmean    18.032251                       # Writes before turning the bus around for reads
system.mem_ctrls1.wrPerTurnAround::stdev     0.930676                       # Writes before turning the bus around for reads
system.mem_ctrls1.wrPerTurnAround::16             227      9.42%      9.42% # Writes before turning the bus around for reads
system.mem_ctrls1.wrPerTurnAround::17              66      2.74%     12.15% # Writes before turning the bus around for reads
system.mem_ctrls1.wrPerTurnAround::18            1602     66.45%     78.60% # Writes before turning the bus around for reads
system.mem_ctrls1.wrPerTurnAround::19             418     17.34%     95.94% # Writes before turning the bus around for reads
system.mem_ctrls1.wrPerTurnAround::20              74      3.07%     99.00% # Writes before turning the bus around for reads
system.mem_ctrls1.wrPerTurnAround::21              15      0.62%     99.63% # Writes before turning the bus around for reads
system.mem_ctrls1.wrPerTurnAround::22               8      0.33%     99.96% # Writes before turning the bus around for reads
system.mem_ctrls1.wrPerTurnAround::30               1      0.04%    100.00% # Writes before turning the bus around for reads
system.mem_ctrls1.wrPerTurnAround::total         2411                       # Writes before turning the bus around for reads
system.mem_ctrls1.totQLat                  1404625287                       # Total ticks spent queuing
system.mem_ctrls1.totMemAccLat             2854225287                       # Total ticks spent from burst creation until serviced by the DRAM
system.mem_ctrls1.totBusLat                 386560000                       # Total ticks spent in databus transfers
system.mem_ctrls1.avgQLat                    18168.27                       # Average queueing delay per DRAM burst
system.mem_ctrls1.avgBusLat                   5000.00                       # Average bus latency per DRAM burst
system.mem_ctrls1.avgMemAccLat               36918.27                       # Average memory access latency per DRAM burst
system.mem_ctrls1.avgRdBW                        4.81                       # Average DRAM read bandwidth in MiByte/s
system.mem_ctrls1.avgWrBW                        2.71                       # Average achieved write bandwidth in MiByte/s
system.mem_ctrls1.avgRdBWSys                     4.82                       # Average system read bandwidth in MiByte/s
system.mem_ctrls1.avgWrBWSys                     2.71                       # Average system write bandwidth in MiByte/s
system.mem_ctrls1.peakBW                     12800.00                       # Theoretical peak bandwidth in MiByte/s
system.mem_ctrls1.busUtil                        0.06                       # Data bus utilization in percentage
system.mem_ctrls1.busUtilRead                    0.04                       # Data bus utilization in percentage for reads
system.mem_ctrls1.busUtilWrite                   0.02                       # Data bus utilization in percentage for writes
system.mem_ctrls1.avgRdQLen                      1.00                       # Average read queue length when enqueuing
system.mem_ctrls1.avgWrQLen                      0.82                       # Average write queue length when enqueuing
system.mem_ctrls1.readRowHits                   52051                       # Number of row buffer hits during reads
system.mem_ctrls1.writeRowHits                  19499                       # Number of row buffer hits during writes
system.mem_ctrls1.readRowHitRate                67.33                       # Row buffer hit rate for reads
system.mem_ctrls1.writeRowHitRate               44.77                       # Row buffer hit rate for writes
system.mem_ctrls1.avgGap                   8500185.06                       # Average gap between requests
system.mem_ctrls1.pageHitRate                   59.20                       # Row buffer hit rate, read and write combined
system.mem_ctrls1_0.actEnergy               176079540                       # Energy for activate commands per rank (pJ)
system.mem_ctrls1_0.preEnergy                93588495                       # Energy for precharge commands per rank (pJ)
system.mem_ctrls1_0.readEnergy              277074840                       # Energy for read commands per rank (pJ)
system.mem_ctrls1_0.writeEnergy             114025680                       # Energy for write commands per rank (pJ)
system.mem_ctrls1_0.refreshEnergy        4800338400.000001                       # Energy for refresh commands per rank (pJ)
system.mem_ctrls1_0.actBackEnergy          2427201360                       # Energy for active background per rank (pJ)
system.mem_ctrls1_0.preBackEnergy           128204160                       # Energy for precharge background per rank (pJ)
system.mem_ctrls1_0.actPowerDownEnergy    18832112010                       # Energy for active power-down per rank (pJ)
system.mem_ctrls1_0.prePowerDownEnergy     4565760000                       # Energy for precharge power-down per rank (pJ)
system.mem_ctrls1_0.selfRefreshEnergy    232655637375                       # Energy for self refresh per rank (pJ)
system.mem_ctrls1_0.totalEnergy          264070422390                       # Total energy per rank (pJ)
system.mem_ctrls1_0.averagePower           256.973025                       # Core power per rank (mW)
system.mem_ctrls1_0.totalIdleTime        1021933085386                       # Total Idle time Per DRAM Rank
system.mem_ctrls1_0.memoryStateTime::IDLE    121324670                       # Time in different power states
system.mem_ctrls1_0.memoryStateTime::REF   2032322000                       # Time in different power states
system.mem_ctrls1_0.memoryStateTime::SREF 968773171370                       # Time in different power states
system.mem_ctrls1_0.memoryStateTime::PRE_PDN  11889482373                       # Time in different power states
system.mem_ctrls1_0.memoryStateTime::ACT   3503977617                       # Time in different power states
system.mem_ctrls1_0.memoryStateTime::ACT_PDN  41298954090                       # Time in different power states
system.mem_ctrls1_1.actEnergy               175886760                       # Energy for activate commands per rank (pJ)
system.mem_ctrls1_1.preEnergy                93486030                       # Energy for precharge commands per rank (pJ)
system.mem_ctrls1_1.readEnergy              274932840                       # Energy for read commands per rank (pJ)
system.mem_ctrls1_1.writeEnergy             113216580                       # Energy for write commands per rank (pJ)
system.mem_ctrls1_1.refreshEnergy        4680483600.000001                       # Energy for refresh commands per rank (pJ)
system.mem_ctrls1_1.actBackEnergy          2497256070                       # Energy for active background per rank (pJ)
system.mem_ctrls1_1.preBackEnergy           121904640                       # Energy for precharge background per rank (pJ)
system.mem_ctrls1_1.actPowerDownEnergy    18426642510                       # Energy for active power-down per rank (pJ)
system.mem_ctrls1_1.prePowerDownEnergy     4424396160                       # Energy for precharge power-down per rank (pJ)
system.mem_ctrls1_1.selfRefreshEnergy    232894176090                       # Energy for self refresh per rank (pJ)
system.mem_ctrls1_1.totalEnergy          263703028590                       # Total energy per rank (pJ)
system.mem_ctrls1_1.averagePower           256.615505                       # Core power per rank (mW)
system.mem_ctrls1_1.totalIdleTime        1021791870548                       # Total Idle time Per DRAM Rank
system.mem_ctrls1_1.memoryStateTime::IDLE    109710012                       # Time in different power states
system.mem_ctrls1_1.memoryStateTime::REF   1981232000                       # Time in different power states
system.mem_ctrls1_1.memoryStateTime::SREF 969892726370                       # Time in different power states
system.mem_ctrls1_1.memoryStateTime::PRE_PDN  11520962870                       # Time in different power states
system.mem_ctrls1_1.memoryStateTime::ACT   3707148862                       # Time in different power states
system.mem_ctrls1_1.memoryStateTime::ACT_PDN  40407452006                       # Time in different power states
system.pwrStateResidencyTicks::UNDEFINED 111353837986377                       # Cumulative time (in ticks) in various power states
system.cpu.branchPred.lookups                      16                       # Number of BP lookups
system.cpu.branchPred.condPredicted                16                       # Number of conditional branches predicted
system.cpu.branchPred.condIncorrect                13                       # Number of conditional branches incorrect
system.cpu.branchPred.BTBLookups                    0                       # Number of BTB lookups
system.cpu.branchPred.BTBHits                       0                       # Number of BTB hits
system.cpu.branchPred.BTBCorrect                    0                       # Number of correct BTB predictions (this stat may not work properly.
system.cpu.branchPred.BTBHitPct                   nan                       # BTB Hit Percentage
system.cpu.branchPred.usedRAS                       0                       # Number of times the RAS was used to get a target.
system.cpu.branchPred.RASInCorrect                  0                       # Number of incorrect RAS predictions.
system.cpu.branchPred.indirectLookups               0                       # Number of indirect predictor lookups.
system.cpu.branchPred.indirectHits                  0                       # Number of indirect target hits.
system.cpu.branchPred.indirectMisses                0                       # Number of indirect misses.
system.cpu.branchPredindirectMispredicted            0                       # Number of mispredicted indirect branches.
system.cpu_voltage_domain.voltage                   1                       # Voltage in Volts
system.cpu_clk_domain.clock                       333                       # Clock period in ticks
system.cpu.dtb.fetch_hits                           0                       # ITB hits
system.cpu.dtb.fetch_misses                         0                       # ITB misses
system.cpu.dtb.fetch_acv                            0                       # ITB acv
system.cpu.dtb.fetch_accesses                       0                       # ITB accesses
system.cpu.dtb.read_hits                           28                       # DTB read hits
system.cpu.dtb.read_misses                          0                       # DTB read misses
system.cpu.dtb.read_acv                             0                       # DTB read access violations
system.cpu.dtb.read_accesses                       28                       # DTB read accesses
system.cpu.dtb.write_hits                          14                       # DTB write hits
system.cpu.dtb.write_misses                         0                       # DTB write misses
system.cpu.dtb.write_acv                            0                       # DTB write access violations
system.cpu.dtb.write_accesses                      14                       # DTB write accesses
system.cpu.dtb.data_hits                           42                       # DTB hits
system.cpu.dtb.data_misses                          0                       # DTB misses
system.cpu.dtb.data_acv                             0                       # DTB access violations
system.cpu.dtb.data_accesses                       42                       # DTB accesses
system.cpu.itb.fetch_hits                          30                       # ITB hits
system.cpu.itb.fetch_misses                         0                       # ITB misses
system.cpu.itb.fetch_acv                            0                       # ITB acv
system.cpu.itb.fetch_accesses                      30                       # ITB accesses
system.cpu.itb.read_hits                            0                       # DTB read hits
system.cpu.itb.read_misses                          0                       # DTB read misses
system.cpu.itb.read_acv                             0                       # DTB read access violations
system.cpu.itb.read_accesses                        0                       # DTB read accesses
system.cpu.itb.write_hits                           0                       # DTB write hits
system.cpu.itb.write_misses                         0                       # DTB write misses
system.cpu.itb.write_acv                            0                       # DTB write access violations
system.cpu.itb.write_accesses                       0                       # DTB write accesses
system.cpu.itb.data_hits                            0                       # DTB hits
system.cpu.itb.data_misses                          0                       # DTB misses
system.cpu.itb.data_acv                             0                       # DTB access violations
system.cpu.itb.data_accesses                        0                       # DTB accesses
system.cpu.workload.num_syscalls                    6                       # Number of system calls
system.cpu.pwrStateResidencyTicks::ON    1027619232120                       # Cumulative time (in ticks) in various power states
system.cpu.numCycles                              738                       # number of cpu cycles simulated
system.cpu.numWorkItemsStarted                      0                       # number of work items this cpu started
system.cpu.numWorkItemsCompleted                    0                       # number of work items this cpu completed
system.cpu.fetch.icacheStallCycles                162                       # Number of cycles fetch is stalled on an Icache miss
system.cpu.fetch.Insts                            176                       # Number of instructions fetch has processed
system.cpu.fetch.Branches                          16                       # Number of branches that fetch encountered
system.cpu.fetch.Cycles                            29                       # Number of cycles fetch has run and was not squashing or blocked
system.cpu.fetch.SquashCycles                      29                       # Number of cycles fetch has spent squashing
system.cpu.fetch.PendingDrainCycles                23                       # Number of cycles fetch has spent waiting on pipes to drain
system.cpu.fetch.CacheLines                        30                       # Number of cache lines fetched
system.cpu.fetch.IcacheSquashes                    15                       # Number of outstanding Icache misses that were squashed
system.cpu.fetch.rateDist::samples                228                       # Number of instructions fetched each cycle (Total)
system.cpu.fetch.rateDist::mean              0.771930                       # Number of instructions fetched each cycle (Total)
system.cpu.fetch.rateDist::stdev             2.148804                       # Number of instructions fetched each cycle (Total)
system.cpu.fetch.rateDist::underflows               0      0.00%      0.00% # Number of instructions fetched each cycle (Total)
system.cpu.fetch.rateDist::0                      199     87.28%     87.28% # Number of instructions fetched each cycle (Total)
system.cpu.fetch.rateDist::1                        0      0.00%     87.28% # Number of instructions fetched each cycle (Total)
system.cpu.fetch.rateDist::2                        0      0.00%     87.28% # Number of instructions fetched each cycle (Total)
system.cpu.fetch.rateDist::3                        0      0.00%     87.28% # Number of instructions fetched each cycle (Total)
system.cpu.fetch.rateDist::4                       14      6.14%     93.42% # Number of instructions fetched each cycle (Total)
system.cpu.fetch.rateDist::5                        0      0.00%     93.42% # Number of instructions fetched each cycle (Total)
[...]
system.switch_cpus_1.iq.int_inst_queue_writes    202640419                       # Number of integer instruction queue writes
system.switch_cpus_1.iq.int_inst_queue_wakeup_accesses    200868215                       # Number of integer instruction queue wakeup accesses
system.switch_cpus_1.iq.fp_inst_queue_reads        21442                       # Number of floating instruction queue reads
system.switch_cpus_1.iq.fp_inst_queue_writes        20923                       # Number of floating instruction queue writes
system.switch_cpus_1.iq.fp_inst_queue_wakeup_accesses         9439                       # Number of floating instruction queue wakeup accesses
system.switch_cpus_1.iq.int_alu_accesses    204532747                       # Number of integer alu accesses
system.switch_cpus_1.iq.fp_alu_accesses         10858                       # Number of floating point alu accesses
system.switch_cpus_1.iew.lsq.thread0.forwLoads      2207003                       # Number of loads that had data forwarded from stores
system.switch_cpus_1.iew.lsq.thread0.invAddrLoads            0                       # Number of loads ignored due to an invalid address
system.switch_cpus_1.iew.lsq.thread0.squashedLoads       350654                       # Number of loads squashed
system.switch_cpus_1.iew.lsq.thread0.ignoredResponses          205                       # Number of memory responses ignored because the instruction is squashed
system.switch_cpus_1.iew.lsq.thread0.memOrderViolation         3513                       # Number of memory ordering violations
system.switch_cpus_1.iew.lsq.thread0.squashedStores       139507                       # Number of stores squashed
system.switch_cpus_1.iew.lsq.thread0.invAddrSwpfs            0                       # Number of software prefetches ignored due to an invalid address
system.switch_cpus_1.iew.lsq.thread0.blockedLoads            0                       # Number of blocked loads due to partial load-store forwarding
system.switch_cpus_1.iew.lsq.thread0.rescheduledLoads           38                       # Number of loads that were rescheduled
system.switch_cpus_1.iew.lsq.thread0.cacheBlocked       424947                       # Number of times an access to memory failed due to the cache being blocked
system.switch_cpus_1.iew.iewIdleCycles              0                       # Number of cycles IEW is idle
system.switch_cpus_1.iew.iewSquashCycles        36228                       # Number of cycles IEW is squashing
system.switch_cpus_1.iew.iewBlockCycles        349345                       # Number of cycles IEW is blocking
system.switch_cpus_1.iew.iewUnblockCycles      2593837                       # Number of cycles IEW is unblocking
system.switch_cpus_1.iew.iewDispatchedInsts    201462829                       # Number of instructions dispatched to IQ
system.switch_cpus_1.iew.iewDispSquashedInsts         1181                       # Number of squashed instructions skipped by dispatch
system.switch_cpus_1.iew.iewDispLoadInsts     53740454                       # Number of dispatched load instructions
system.switch_cpus_1.iew.iewDispStoreInsts     22318100                       # Number of dispatched store instructions
system.switch_cpus_1.iew.iewDispNonSpecInsts         1867                       # Number of dispatched non-speculative instructions
system.switch_cpus_1.iew.iewIQFullEvents         9790                       # Number of times the IQ has become full, causing a stall
system.switch_cpus_1.iew.iewLSQFullEvents      2568715                       # Number of times the LSQ has become full, causing a stall
system.switch_cpus_1.iew.memOrderViolationEvents         3513                       # Number of memory order violations
system.switch_cpus_1.iew.predictedTakenIncorrect        11666                       # Number of branches that were predicted taken incorrectly
system.switch_cpus_1.iew.predictedNotTakenIncorrect        16820                       # Number of branches that were predicted not taken incorrectly
system.switch_cpus_1.iew.branchMispredicts        28486                       # Number of branch mispredicts detected at execute
system.switch_cpus_1.iew.iewExecutedInsts    201358150                       # Number of executed instructions
system.switch_cpus_1.iew.iewExecLoadInsts     54077579                       # Number of load instructions executed
system.switch_cpus_1.iew.iewExecSquashedInsts        67104                       # Number of squashed instructions skipped in execute
system.switch_cpus_1.iew.exec_swp                   0                       # number of swp insts executed
system.switch_cpus_1.iew.exec_nop              133859                       # number of nop insts executed
system.switch_cpus_1.iew.exec_refs           76339027                       # number of memory reference insts executed
system.switch_cpus_1.iew.exec_branches        9159771                       # Number of branches executed
system.switch_cpus_1.iew.exec_stores         22261448                       # Number of stores executed
system.switch_cpus_1.iew.exec_rate           2.850710                       # Inst execution rate
system.switch_cpus_1.iew.wb_sent            200929706                       # cumulative count of insts sent to commit
system.switch_cpus_1.iew.wb_count           200877654                       # cumulative count of insts written-back
system.switch_cpus_1.iew.wb_producers       130012729                       # num instructions producing a value
system.switch_cpus_1.iew.wb_consumers       178490470                       # num instructions consuming a value
system.switch_cpus_1.iew.wb_rate             2.843908                       # insts written-back per cycle
system.switch_cpus_1.iew.wb_fanout           0.728402                       # average fanout of values written-back
system.switch_cpus_1.commit.commitSquashedInsts      1268496                       # The number of squashed insts skipped by commit
system.switch_cpus_1.commit.commitNonSpecStalls         2565                       # The number of times commit has been forced to stall to communicate backwards
system.switch_cpus_1.commit.branchMispredicts        27201                       # The number of times a branch was mispredicted
system.switch_cpus_1.commit.committed_per_cycle::samples     70408378                       # Number of insts commited each cycle
system.switch_cpus_1.commit.committed_per_cycle::mean     2.842043                       # Number of insts commited each cycle
system.switch_cpus_1.commit.committed_per_cycle::stdev     3.446603                       # Number of insts commited each cycle
system.switch_cpus_1.commit.committed_per_cycle::underflows            0      0.00%      0.00% # Number of insts commited each cycle
system.switch_cpus_1.commit.committed_per_cycle::0     30546666     43.38%     43.38% # Number of insts commited each cycle
system.switch_cpus_1.commit.committed_per_cycle::1     11524269     16.37%     59.75% # Number of insts commited each cycle
system.switch_cpus_1.commit.committed_per_cycle::2      2520250      3.58%     63.33% # Number of insts commited each cycle
system.switch_cpus_1.commit.committed_per_cycle::3      2940028      4.18%     67.51% # Number of insts commited each cycle
system.switch_cpus_1.commit.committed_per_cycle::4       425986      0.61%     68.11% # Number of insts commited each cycle
system.switch_cpus_1.commit.committed_per_cycle::5      1972998      2.80%     70.92% # Number of insts commited each cycle
system.switch_cpus_1.commit.committed_per_cycle::6       206745      0.29%     71.21% # Number of insts commited each cycle
system.switch_cpus_1.commit.committed_per_cycle::7       262135      0.37%     71.58% # Number of insts commited each cycle
system.switch_cpus_1.commit.committed_per_cycle::8     20009301     28.42%    100.00% # Number of insts commited each cycle
system.switch_cpus_1.commit.committed_per_cycle::overflows            0      0.00%    100.00% # Number of insts commited each cycle
system.switch_cpus_1.commit.committed_per_cycle::min_value            0                       # Number of insts commited each cycle
system.switch_cpus_1.commit.committed_per_cycle::max_value            8                       # Number of insts commited each cycle
system.switch_cpus_1.commit.committed_per_cycle::total     70408378                       # Number of insts commited each cycle
system.switch_cpus_1.commit.committedInsts    200103610                       # Number of instructions committed
system.switch_cpus_1.commit.committedOps    200103610                       # Number of ops (including micro ops) committed
system.switch_cpus_1.commit.swp_count               0                       # Number of s/w prefetches committed
system.switch_cpus_1.commit.refs             75568371                       # Number of memory references committed
system.switch_cpus_1.commit.loads            53389787                       # Number of loads committed
system.switch_cpus_1.commit.membars              1282                       # Number of memory barriers committed
system.switch_cpus_1.commit.branches          9081009                       # Number of branches committed
system.switch_cpus_1.commit.fp_insts             7063                       # Number of committed floating point instructions.
system.switch_cpus_1.commit.int_insts       199966042                       # Number of committed integer instructions.
system.switch_cpus_1.commit.function_calls        26169                       # Number of function calls committed.
system.switch_cpus_1.commit.op_class_0::No_OpClass       103604      0.05%      0.05% # Class of committed instruction
system.switch_cpus_1.commit.op_class_0::IntAlu    124425131     62.18%     62.23% # Class of committed instruction
system.switch_cpus_1.commit.op_class_0::IntMult           14      0.00%     62.23% # Class of committed instruction
system.switch_cpus_1.commit.op_class_0::IntDiv            0      0.00%     62.23% # Class of committed instruction
system.switch_cpus_1.commit.op_class_0::FloatAdd         3080      0.00%     62.23% # Class of committed instruction
system.switch_cpus_1.commit.op_class_0::FloatCmp          511      0.00%     62.23% # Class of committed instruction
system.switch_cpus_1.commit.op_class_0::FloatCvt          406      0.00%     62.23% # Class of committed instruction
system.switch_cpus_1.commit.op_class_0::FloatMult         1162      0.00%     62.23% # Class of committed instruction
system.switch_cpus_1.commit.op_class_0::FloatMultAcc            0      0.00%     62.23% # Class of committed instruction
system.switch_cpus_1.commit.op_class_0::FloatDiv           49      0.00%     62.23% # Class of committed instruction
system.switch_cpus_1.commit.op_class_0::FloatMisc            0      0.00%     62.23% # Class of committed instruction
system.switch_cpus_1.commit.op_class_0::FloatSqrt            0      0.00%     62.23% # Class of committed instruction
system.switch_cpus_1.commit.op_class_0::SimdAdd            0      0.00%     62.23% # Class of committed instruction
system.switch_cpus_1.commit.op_class_0::SimdAddAcc            0      0.00%     62.23% # Class of committed instruction
system.switch_cpus_1.commit.op_class_0::SimdAlu            0      0.00%     62.23% # Class of committed instruction
system.switch_cpus_1.commit.op_class_0::SimdCmp            0      0.00%     62.23% # Class of committed instruction
system.switch_cpus_1.commit.op_class_0::SimdCvt            0      0.00%     62.23% # Class of committed instruction
system.switch_cpus_1.commit.op_class_0::SimdMisc            0      0.00%     62.23% # Class of committed instruction
system.switch_cpus_1.commit.op_class_0::SimdMult            0      0.00%     62.23% # Class of committed instruction
system.switch_cpus_1.commit.op_class_0::SimdMultAcc            0      0.00%     62.23% # Class of committed instruction
system.switch_cpus_1.commit.op_class_0::SimdShift            0      0.00%     62.23% # Class of committed instruction
system.switch_cpus_1.commit.op_class_0::SimdShiftAcc            0      0.00%     62.23% # Class of committed instruction
system.switch_cpus_1.commit.op_class_0::SimdSqrt            0      0.00%     62.23% # Class of committed instruction
system.switch_cpus_1.commit.op_class_0::SimdFloatAdd            0      0.00%     62.23% # Class of committed instruction
system.switch_cpus_1.commit.op_class_0::SimdFloatAlu            0      0.00%     62.23% # Class of committed instruction
system.switch_cpus_1.commit.op_class_0::SimdFloatCmp            0      0.00%     62.23% # Class of committed instruction
system.switch_cpus_1.commit.op_class_0::SimdFloatCvt            0      0.00%     62.23% # Class of committed instruction
system.switch_cpus_1.commit.op_class_0::SimdFloatDiv            0      0.00%     62.23% # Class of committed instruction
system.switch_cpus_1.commit.op_class_0::SimdFloatMisc            0      0.00%     62.23% # Class of committed instruction
system.switch_cpus_1.commit.op_class_0::SimdFloatMult            0      0.00%     62.23% # Class of committed instruction
system.switch_cpus_1.commit.op_class_0::SimdFloatMultAcc            0      0.00%     62.23% # Class of committed instruction
system.switch_cpus_1.commit.op_class_0::SimdFloatSqrt            0      0.00%     62.23% # Class of committed instruction
system.switch_cpus_1.commit.op_class_0::MemRead     53389445     26.68%     88.92% # Class of committed instruction
system.switch_cpus_1.commit.op_class_0::MemWrite     22178353     11.08%    100.00% # Class of committed instruction
system.switch_cpus_1.commit.op_class_0::FloatMemRead         1624      0.00%    100.00% # Class of committed instruction
system.switch_cpus_1.commit.op_class_0::FloatMemWrite          231      0.00%    100.00% # Class of committed instruction
system.switch_cpus_1.commit.op_class_0::IprAccess            0      0.00%    100.00% # Class of committed instruction
system.switch_cpus_1.commit.op_class_0::InstPrefetch            0      0.00%    100.00% # Class of committed instruction
system.switch_cpus_1.commit.op_class_0::total    200103610                       # Class of committed instruction
system.switch_cpus_1.commit.bw_lim_events     20009301                       # number cycles where commit BW limit reached
system.switch_cpus_1.rob.rob_reads          251692052                       # The number of ROB reads
system.switch_cpus_1.rob.rob_writes         402930912                       # The number of ROB writes
system.switch_cpus_1.timesIdled                   894                       # Number of times that the entire CPU went into an idle state and unscheduled itself
system.switch_cpus_1.idleCycles                 41818                       # Total number of cycles that the CPU has spent unscheduled due to idling
system.switch_cpus_1.committedInsts         200000006                       # Number of Instructions Simulated
system.switch_cpus_1.committedOps           200000006                       # Number of Ops (including micro ops) Simulated
system.switch_cpus_1.cpi                     0.353172                       # CPI: Cycles Per Instruction
system.switch_cpus_1.cpi_total               0.353172                       # CPI: Total CPI of All Threads
system.switch_cpus_1.ipc                     2.831482                       # IPC: Instructions Per Cycle
system.switch_cpus_1.ipc_total               2.831482                       # IPC: Total IPC of All Threads
system.switch_cpus_1.int_regfile_reads      323290148                       # number of integer regfile reads
system.switch_cpus_1.int_regfile_writes     169527937                       # number of integer regfile writes
system.switch_cpus_1.fp_regfile_reads           12307                       # number of floating regfile reads
system.switch_cpus_1.fp_regfile_writes           8057                       # number of floating regfile writes
system.switch_cpus_1.misc_regfile_reads         13715                       # number of misc regfile reads
system.switch_cpus_1.misc_regfile_writes         2564                       # number of misc regfile writes
system.tol3bus.snoop_filter.tot_requests      5443171                       # Total number of requests made to the snoop filter.
system.tol3bus.snoop_filter.hit_single_requests      2719264                       # Number of requests hitting in the snoop filter with a single holder of the requested data.
system.tol3bus.snoop_filter.hit_multi_requests            0                       # Number of requests hitting in the snoop filter with multiple (>1) holders of the requested data.
system.tol3bus.snoop_filter.tot_snoops            882                       # Total number of snoops made to the snoop filter.
system.tol3bus.snoop_filter.hit_single_snoops          882                       # Number of snoops hitting in the snoop filter with a single holder of the requested data.
system.tol3bus.snoop_filter.hit_multi_snoops            0                       # Number of snoops hitting in the snoop filter with multiple (>1) holders of the requested data.
system.tol3bus.pwrStateResidencyTicks::UNDEFINED 111353837986377                       # Cumulative time (in ticks) in various power states
system.tol3bus.trans_dist::ReadResp            206232                       # Transaction distribution
system.tol3bus.trans_dist::WritebackDirty      2639252                       # Transaction distribution
system.tol3bus.trans_dist::CleanEvict          169114                       # Transaction distribution
system.tol3bus.trans_dist::ReadExReq          2517675                       # Transaction distribution
system.tol3bus.trans_dist::ReadExResp         2517675                       # Transaction distribution
system.tol3bus.trans_dist::ReadSharedReq       206232                       # Transaction distribution
system.tol3bus.pkt_count_system.cpu.l2.mem_side::system.l3.cpu_side      8167078                       # Packet count per connected master and slave (bytes)
system.tol3bus.pkt_size_system.cpu.l2.mem_side::system.l3.cpu_side    337671936                       # Cumulative packet size per connected master and slave (bytes)
system.tol3bus.snoops                           89102                       # Total snoops (count)
system.tol3bus.snoopTraffic                   5570240                       # Total snoop traffic (bytes)
system.tol3bus.snoop_fanout::samples          2813009                       # Request fanout histogram
system.tol3bus.snoop_fanout::mean            0.000314                       # Request fanout histogram
system.tol3bus.snoop_fanout::stdev           0.017704                       # Request fanout histogram
system.tol3bus.snoop_fanout::underflows             0      0.00%      0.00% # Request fanout histogram
system.tol3bus.snoop_fanout::0                2812127     99.97%     99.97% # Request fanout histogram
system.tol3bus.snoop_fanout::1                    882      0.03%    100.00% # Request fanout histogram
system.tol3bus.snoop_fanout::overflows              0      0.00%    100.00% # Request fanout histogram
system.tol3bus.snoop_fanout::min_value              0                       # Request fanout histogram
system.tol3bus.snoop_fanout::max_value              1                       # Request fanout histogram
system.tol3bus.snoop_fanout::total            2813009                       # Request fanout histogram
system.tol3bus.reqLayer0.occupancy         2662464204                       # Layer occupancy (ticks)
system.tol3bus.reqLayer0.utilization              0.3                       # Layer utilization (%)
system.tol3bus.respLayer0.occupancy        1814122062                       # Layer occupancy (ticks)
system.tol3bus.respLayer0.utilization             0.2                       # Layer utilization (%)

---------- End Simulation Statistics   ----------
