
---------- Begin Simulation Statistics ----------
sim_seconds                                  1.061896                       # Number of seconds simulated
sim_ticks                                1061895532509                       # Number of ticks simulated
final_tick                               31073309693559                       # Number of ticks from beginning of simulation (restored from checkpoints and never reset)
sim_freq                                 1000000000000                       # Frequency of simulated ticks
host_inst_rate                                 506833                       # Simulator instruction rate (inst/s)
host_op_rate                                   506833                       # Simulator op (including micro ops) rate (op/s)
host_tick_rate                              448503309                       # Simulator tick rate (ticks/s)
host_mem_usage                                2425088                       # Number of bytes of host memory used
host_seconds                                  2367.64                       # Real time elapsed on the host
sim_insts                                  1200000007                       # Number of instructions simulated
sim_ops                                    1200000007                       # Number of ops (including micro ops) simulated
system.voltage_domain.voltage                       1                       # Voltage in Volts
system.clk_domain.clock                          1000                       # Clock period in ticks
system.mem_ctrls0.pwrStateResidencyTicks::UNDEFINED 31073309693559                       # Cumulative time (in ticks) in various power states
system.mem_ctrls0.bytes_read::cpu.inst             64                       # Number of bytes read from this memory
system.mem_ctrls0.bytes_read::switch_cpus.inst       138304                       # Number of bytes read from this memory
system.mem_ctrls0.bytes_read::switch_cpus.data      3615360                       # Number of bytes read from this memory
system.mem_ctrls0.bytes_read::switch_cpus_1.inst       110528                       # Number of bytes read from this memory
system.mem_ctrls0.bytes_read::switch_cpus_1.data      1557120                       # Number of bytes read from this memory
system.mem_ctrls0.bytes_read::total           5421376                       # Number of bytes read from this memory
system.mem_ctrls0.bytes_inst_read::cpu.inst           64                       # Number of instructions bytes read from this memory
system.mem_ctrls0.bytes_inst_read::switch_cpus.inst       138304                       # Number of instructions bytes read from this memory
system.mem_ctrls0.bytes_inst_read::switch_cpus_1.inst       110528                       # Number of instructions bytes read from this memory
system.mem_ctrls0.bytes_inst_read::total       248896                       # Number of instructions bytes read from this memory
system.mem_ctrls0.bytes_written::writebacks       710208                       # Number of bytes written to this memory
system.mem_ctrls0.bytes_written::total         710208                       # Number of bytes written to this memory
system.mem_ctrls0.num_reads::cpu.inst               1                       # Number of read requests responded to by this memory
system.mem_ctrls0.num_reads::switch_cpus.inst         2161                       # Number of read requests responded to by this memory
system.mem_ctrls0.num_reads::switch_cpus.data        56490                       # Number of read requests responded to by this memory
system.mem_ctrls0.num_reads::switch_cpus_1.inst         1727                       # Number of read requests responded to by this memory
system.mem_ctrls0.num_reads::switch_cpus_1.data        24330                       # Number of read requests responded to by this memory
system.mem_ctrls0.num_reads::total              84709                       # Number of read requests responded to by this memory
system.mem_ctrls0.num_writes::writebacks        11097                       # Number of write requests responded to by this memory
system.mem_ctrls0.num_writes::total             11097                       # Number of write requests responded to by this memory
system.mem_ctrls0.bw_read::cpu.inst                60                       # Total read bandwidth from this memory (bytes/s)
system.mem_ctrls0.bw_read::switch_cpus.inst       130243                       # Total read bandwidth from this memory (bytes/s)
system.mem_ctrls0.bw_read::switch_cpus.data      3404629                       # Total read bandwidth from this memory (bytes/s)
system.mem_ctrls0.bw_read::switch_cpus_1.inst       104086                       # Total read bandwidth from this memory (bytes/s)
system.mem_ctrls0.bw_read::switch_cpus_1.data      1466359                       # Total read bandwidth from this memory (bytes/s)
system.mem_ctrls0.bw_read::total              5105376                       # Total read bandwidth from this memory (bytes/s)
system.mem_ctrls0.bw_inst_read::cpu.inst           60                       # Instruction read bandwidth from this memory (bytes/s)
system.mem_ctrls0.bw_inst_read::switch_cpus.inst       130243                       # Instruction read bandwidth from this memory (bytes/s)
system.mem_ctrls0.bw_inst_read::switch_cpus_1.inst       104086                       # Instruction read bandwidth from this memory (bytes/s)
system.mem_ctrls0.bw_inst_read::total          234388                       # Instruction read bandwidth from this memory (bytes/s)
system.mem_ctrls0.bw_write::writebacks         668812                       # Write bandwidth from this memory (bytes/s)
system.mem_ctrls0.bw_write::total              668812                       # Write bandwidth from this memory (bytes/s)
system.mem_ctrls0.bw_total::writebacks         668812                       # Total bandwidth to/from this memory (bytes/s)
system.mem_ctrls0.bw_total::cpu.inst               60                       # Total bandwidth to/from this memory (bytes/s)
system.mem_ctrls0.bw_total::switch_cpus.inst       130243                       # Total bandwidth to/from this memory (bytes/s)
system.mem_ctrls0.bw_total::switch_cpus.data      3404629                       # Total bandwidth to/from this memory (bytes/s)
system.mem_ctrls0.bw_total::switch_cpus_1.inst       104086                       # Total bandwidth to/from this memory (bytes/s)
system.mem_ctrls0.bw_total::switch_cpus_1.data      1466359                       # Total bandwidth to/from this memory (bytes/s)
system.mem_ctrls0.bw_total::total             5774188                       # Total bandwidth to/from this memory (bytes/s)
system.mem_ctrls0.readReqs                      84709                       # Number of read requests accepted
system.mem_ctrls0.writeReqs                     11097                       # Number of write requests accepted
system.mem_ctrls0.readBursts                    84709                       # Number of DRAM read bursts, including those serviced by the write queue
system.mem_ctrls0.writeBursts                   11097                       # Number of DRAM write bursts, including those merged in the write queue
system.mem_ctrls0.bytesReadDRAM               5418112                       # Total number of bytes read from DRAM
system.mem_ctrls0.bytesReadWrQ                   3264                       # Total number of bytes read from write queue
system.mem_ctrls0.bytesWritten                 708800                       # Total number of bytes written to DRAM
system.mem_ctrls0.bytesReadSys                5421376                       # Total read bytes from the system interface side
system.mem_ctrls0.bytesWrittenSys              710208                       # Total written bytes from the system interface side
system.mem_ctrls0.servicedByWrQ                    51                       # Number of DRAM read bursts serviced by the write queue
system.mem_ctrls0.mergedWrBursts                    0                       # Number of DRAM write bursts merged with an existing one
system.mem_ctrls0.neitherReadNorWriteReqs            0                       # Number of requests that are neither read nor write
system.mem_ctrls0.perBankRdBursts::0             5315                       # Per bank write bursts
system.mem_ctrls0.perBankRdBursts::1             5367                       # Per bank write bursts
system.mem_ctrls0.perBankRdBursts::2             5954                       # Per bank write bursts
system.mem_ctrls0.perBankRdBursts::3             5592                       # Per bank write bursts
system.mem_ctrls0.perBankRdBursts::4             5145                       # Per bank write bursts
system.mem_ctrls0.perBankRdBursts::5             5188                       # Per bank write bursts
system.mem_ctrls0.perBankRdBursts::6             4791                       # Per bank write bursts
system.mem_ctrls0.perBankRdBursts::7             4887                       # Per bank write bursts
system.mem_ctrls0.perBankRdBursts::8             4963                       # Per bank write bursts
system.mem_ctrls0.perBankRdBursts::9             5094                       # Per bank write bursts
system.mem_ctrls0.perBankRdBursts::10            4893                       # Per bank write bursts
system.mem_ctrls0.perBankRdBursts::11            4699                       # Per bank write bursts
system.mem_ctrls0.perBankRdBursts::12            5922                       # Per bank write bursts
system.mem_ctrls0.perBankRdBursts::13            5496                       # Per bank write bursts
system.mem_ctrls0.perBankRdBursts::14            5583                       # Per bank write bursts
system.mem_ctrls0.perBankRdBursts::15            5769                       # Per bank write bursts
system.mem_ctrls0.perBankWrBursts::0              698                       # Per bank write bursts
system.mem_ctrls0.perBankWrBursts::1              730                       # Per bank write bursts
system.mem_ctrls0.perBankWrBursts::2              809                       # Per bank write bursts
system.mem_ctrls0.perBankWrBursts::3              707                       # Per bank write bursts
system.mem_ctrls0.perBankWrBursts::4              708                       # Per bank write bursts
system.mem_ctrls0.perBankWrBursts::5              649                       # Per bank write bursts
system.mem_ctrls0.perBankWrBursts::6              536                       # Per bank write bursts
system.mem_ctrls0.perBankWrBursts::7              634                       # Per bank write bursts
system.mem_ctrls0.perBankWrBursts::8              660                       # Per bank write bursts
system.mem_ctrls0.perBankWrBursts::9              519                       # Per bank write bursts
system.mem_ctrls0.perBankWrBursts::10             534                       # Per bank write bursts
system.mem_ctrls0.perBankWrBursts::11             662                       # Per bank write bursts
system.mem_ctrls0.perBankWrBursts::12             903                       # Per bank write bursts
system.mem_ctrls0.perBankWrBursts::13             783                       # Per bank write bursts
system.mem_ctrls0.perBankWrBursts::14             795                       # Per bank write bursts
system.mem_ctrls0.perBankWrBursts::15             748                       # Per bank write bursts
system.mem_ctrls0.numRdRetry                        0                       # Number of times read queue was full causing retry
system.mem_ctrls0.numWrRetry                        0                       # Number of times write queue was full causing retry
system.mem_ctrls0.totGap                 1061885859192                       # Total gap between requests
system.mem_ctrls0.readPktSize::0                    0                       # Read request sizes (log2)
system.mem_ctrls0.readPktSize::1                    0                       # Read request sizes (log2)
system.mem_ctrls0.readPktSize::2                    0                       # Read request sizes (log2)
system.mem_ctrls0.readPktSize::3                    0                       # Read request sizes (log2)
system.mem_ctrls0.readPktSize::4                    0                       # Read request sizes (log2)
system.mem_ctrls0.readPktSize::5                    0                       # Read request sizes (log2)
system.mem_ctrls0.readPktSize::6                84709                       # Read request sizes (log2)
system.mem_ctrls0.writePktSize::0                   0                       # Write request sizes (log2)
system.mem_ctrls0.writePktSize::1                   0                       # Write request sizes (log2)
system.mem_ctrls0.writePktSize::2                   0                       # Write request sizes (log2)
system.mem_ctrls0.writePktSize::3                   0                       # Write request sizes (log2)
system.mem_ctrls0.writePktSize::4                   0                       # Write request sizes (log2)
system.mem_ctrls0.writePktSize::5                   0                       # Write request sizes (log2)
system.mem_ctrls0.writePktSize::6               11097                       # Write request sizes (log2)
system.mem_ctrls0.rdQLenPdf::0                  82170                       # What read queue length does an incoming req see
system.mem_ctrls0.rdQLenPdf::1                   2369                       # What read queue length does an incoming req see
system.mem_ctrls0.rdQLenPdf::2                    109                       # What read queue length does an incoming req see
system.mem_ctrls0.rdQLenPdf::3                     10                       # What read queue length does an incoming req see
system.mem_ctrls0.rdQLenPdf::4                      0                       # What read queue length does an incoming req see
system.mem_ctrls0.rdQLenPdf::5                      0                       # What read queue length does an incoming req see
system.mem_ctrls0.rdQLenPdf::6                      0                       # What read queue length does an incoming req see
system.mem_ctrls0.rdQLenPdf::7                      0                       # What read queue length does an incoming req see
system.mem_ctrls0.rdQLenPdf::8                      0                       # What read queue length does an incoming req see
system.mem_ctrls0.rdQLenPdf::9                      0                       # What read queue length does an incoming req see
system.mem_ctrls0.rdQLenPdf::10                     0                       # What read queue length does an incoming req see
system.mem_ctrls0.rdQLenPdf::11                     0                       # What read queue length does an incoming req see
system.mem_ctrls0.rdQLenPdf::12                     0                       # What read queue length does an incoming req see
system.mem_ctrls0.rdQLenPdf::13                     0                       # What read queue length does an incoming req see
system.mem_ctrls0.rdQLenPdf::14                     0                       # What read queue length does an incoming req see
system.mem_ctrls0.rdQLenPdf::15                     0                       # What read queue length does an incoming req see
system.mem_ctrls0.rdQLenPdf::16                     0                       # What read queue length does an incoming req see
system.mem_ctrls0.rdQLenPdf::17                     0                       # What read queue length does an incoming req see
system.mem_ctrls0.rdQLenPdf::18                     0                       # What read queue length does an incoming req see
system.mem_ctrls0.rdQLenPdf::19                     0                       # What read queue length does an incoming req see
system.mem_ctrls0.rdQLenPdf::20                     0                       # What read queue length does an incoming req see
system.mem_ctrls0.rdQLenPdf::21                     0                       # What read queue length does an incoming req see
system.mem_ctrls0.rdQLenPdf::22                     0                       # What read queue length does an incoming req see
system.mem_ctrls0.rdQLenPdf::23                     0                       # What read queue length does an incoming req see
system.mem_ctrls0.rdQLenPdf::24                     0                       # What read queue length does an incoming req see
system.mem_ctrls0.rdQLenPdf::25                     0                       # What read queue length does an incoming req see
system.mem_ctrls0.rdQLenPdf::26                     0                       # What read queue length does an incoming req see
system.mem_ctrls0.rdQLenPdf::27                     0                       # What read queue length does an incoming req see
system.mem_ctrls0.rdQLenPdf::28                     0                       # What read queue length does an incoming req see
system.mem_ctrls0.rdQLenPdf::29                     0                       # What read queue length does an incoming req see
system.mem_ctrls0.rdQLenPdf::30                     0                       # What read queue length does an incoming req see
system.mem_ctrls0.rdQLenPdf::31                     0                       # What read queue length does an incoming req see
system.mem_ctrls0.wrQLenPdf::0                      2                       # What write queue length does an incoming req see
system.mem_ctrls0.wrQLenPdf::1                      2                       # What write queue length does an incoming req see
system.mem_ctrls0.wrQLenPdf::2                      2                       # What write queue length does an incoming req see
system.mem_ctrls0.wrQLenPdf::3                      2                       # What write queue length does an incoming req see
system.mem_ctrls0.wrQLenPdf::4                      2                       # What write queue length does an incoming req see
system.mem_ctrls0.wrQLenPdf::5                      2                       # What write queue length does an incoming req see
system.mem_ctrls0.wrQLenPdf::6                      2                       # What write queue length does an incoming req see
system.mem_ctrls0.wrQLenPdf::7                      2                       # What write queue length does an incoming req see
system.mem_ctrls0.wrQLenPdf::8                      2                       # What write queue length does an incoming req see
system.mem_ctrls0.wrQLenPdf::9                      2                       # What write queue length does an incoming req see
system.mem_ctrls0.wrQLenPdf::10                     2                       # What write queue length does an incoming req see
system.mem_ctrls0.wrQLenPdf::11                     2                       # What write queue length does an incoming req see
system.mem_ctrls0.wrQLenPdf::12                     2                       # What write queue length does an incoming req see
system.mem_ctrls0.wrQLenPdf::13                     2                       # What write queue length does an incoming req see
system.mem_ctrls0.wrQLenPdf::14                     2                       # What write queue length does an incoming req see
system.mem_ctrls0.wrQLenPdf::15                   390                       # What write queue length does an incoming req see
system.mem_ctrls0.wrQLenPdf::16                   402                       # What write queue length does an incoming req see
system.mem_ctrls0.wrQLenPdf::17                   629                       # What write queue length does an incoming req see
system.mem_ctrls0.wrQLenPdf::18                   645                       # What write queue length does an incoming req see
system.mem_ctrls0.wrQLenPdf::19                   643                       # What write queue length does an incoming req see
system.mem_ctrls0.wrQLenPdf::20                   644                       # What write queue length does an incoming req see
system.mem_ctrls0.wrQLenPdf::21                   643                       # What write queue length does an incoming req see
system.mem_ctrls0.wrQLenPdf::22                   644                       # What write queue length does an incoming req see
system.mem_ctrls0.wrQLenPdf::23                   645                       # What write queue length does an incoming req see
system.mem_ctrls0.wrQLenPdf::24                   641                       # What write queue length does an incoming req see
system.mem_ctrls0.wrQLenPdf::25                   643                       # What write queue length does an incoming req see
system.mem_ctrls0.wrQLenPdf::26                   643                       # What write queue length does an incoming req see
system.mem_ctrls0.wrQLenPdf::27                   641                       # What write queue length does an incoming req see
system.mem_ctrls0.wrQLenPdf::28                   643                       # What write queue length does an incoming req see
system.mem_ctrls0.wrQLenPdf::29                   644                       # What write queue length does an incoming req see
system.mem_ctrls0.wrQLenPdf::30                   647                       # What write queue length does an incoming req see
system.mem_ctrls0.wrQLenPdf::31                   640                       # What write queue length does an incoming req see
system.mem_ctrls0.wrQLenPdf::32                   640                       # What write queue length does an incoming req see
system.mem_ctrls0.wrQLenPdf::33                     0                       # What write queue length does an incoming req see
system.mem_ctrls0.wrQLenPdf::34                     0                       # What write queue length does an incoming req see
system.mem_ctrls0.wrQLenPdf::35                     0                       # What write queue length does an incoming req see
system.mem_ctrls0.wrQLenPdf::36                     0                       # What write queue length does an incoming req see
system.mem_ctrls0.wrQLenPdf::37                     0                       # What write queue length does an incoming req see
system.mem_ctrls0.wrQLenPdf::38                     0                       # What write queue length does an incoming req see
system.mem_ctrls0.wrQLenPdf::39                     0                       # What write queue length does an incoming req see
system.mem_ctrls0.wrQLenPdf::40                     0                       # What write queue length does an incoming req see
system.mem_ctrls0.wrQLenPdf::41                     0                       # What write queue length does an incoming req see
system.mem_ctrls0.wrQLenPdf::42                     0                       # What write queue length does an incoming req see
system.mem_ctrls0.wrQLenPdf::43                     0                       # What write queue length does an incoming req see
system.mem_ctrls0.wrQLenPdf::44                     0                       # What write queue length does an incoming req see
system.mem_ctrls0.wrQLenPdf::45                     0                       # What write queue length does an incoming req see
system.mem_ctrls0.wrQLenPdf::46                     0                       # What write queue length does an incoming req see
system.mem_ctrls0.wrQLenPdf::47                     0                       # What write queue length does an incoming req see
system.mem_ctrls0.wrQLenPdf::48                     0                       # What write queue length does an incoming req see
system.mem_ctrls0.wrQLenPdf::49                     0                       # What write queue length does an incoming req see
system.mem_ctrls0.wrQLenPdf::50                     0                       # What write queue length does an incoming req see
system.mem_ctrls0.wrQLenPdf::51                     0                       # What write queue length does an incoming req see
system.mem_ctrls0.wrQLenPdf::52                     0                       # What write queue length does an incoming req see
system.mem_ctrls0.wrQLenPdf::53                     0                       # What write queue length does an incoming req see
system.mem_ctrls0.wrQLenPdf::54                     0                       # What write queue length does an incoming req see
system.mem_ctrls0.wrQLenPdf::55                     0                       # What write queue length does an incoming req see
system.mem_ctrls0.wrQLenPdf::56                     0                       # What write queue length does an incoming req see
system.mem_ctrls0.wrQLenPdf::57                     0                       # What write queue length does an incoming req see
system.mem_ctrls0.wrQLenPdf::58                     0                       # What write queue length does an incoming req see
system.mem_ctrls0.wrQLenPdf::59                     0                       # What write queue length does an incoming req see
system.mem_ctrls0.wrQLenPdf::60                     0                       # What write queue length does an incoming req see
system.mem_ctrls0.wrQLenPdf::61                     0                       # What write queue length does an incoming req see
system.mem_ctrls0.wrQLenPdf::62                     0                       # What write queue length does an incoming req see
system.mem_ctrls0.wrQLenPdf::63                     0                       # What write queue length does an incoming req see
system.mem_ctrls0.bytesPerActivate::samples        45604                       # Bytes accessed per row activation
system.mem_ctrls0.bytesPerActivate::mean   134.350320                       # Bytes accessed per row activation
system.mem_ctrls0.bytesPerActivate::gmean    95.781051                       # Bytes accessed per row activation
system.mem_ctrls0.bytesPerActivate::stdev   164.499318                       # Bytes accessed per row activation
system.mem_ctrls0.bytesPerActivate::0-127        30804     67.55%     67.55% # Bytes accessed per row activation
system.mem_ctrls0.bytesPerActivate::128-255         8895     19.50%     87.05% # Bytes accessed per row activation
system.mem_ctrls0.bytesPerActivate::256-383         2273      4.98%     92.04% # Bytes accessed per row activation
system.mem_ctrls0.bytesPerActivate::384-511         1312      2.88%     94.91% # Bytes accessed per row activation
system.mem_ctrls0.bytesPerActivate::512-639          826      1.81%     96.72% # Bytes accessed per row activation
system.mem_ctrls0.bytesPerActivate::640-767          489      1.07%     97.80% # Bytes accessed per row activation
system.mem_ctrls0.bytesPerActivate::768-895          319      0.70%     98.50% # Bytes accessed per row activation
system.mem_ctrls0.bytesPerActivate::896-1023          197      0.43%     98.93% # Bytes accessed per row activation
system.mem_ctrls0.bytesPerActivate::1024-1151          489      1.07%    100.00% # Bytes accessed per row activation
system.mem_ctrls0.bytesPerActivate::total        45604                       # Bytes accessed per row activation
system.mem_ctrls0.rdPerTurnAround::samples          641                       # Reads before turning the bus around for writes
system.mem_ctrls0.rdPerTurnAround::mean    132.032761                       # Reads before turning the bus around for writes
system.mem_ctrls0.rdPerTurnAround::stdev  1077.735815                       # Reads before turning the bus around for writes
system.mem_ctrls0.rdPerTurnAround::0-1023          640     99.84%     99.84% # Reads before turning the bus around for writes
system.mem_ctrls0.rdPerTurnAround::26624-27647            1      0.16%    100.00% # Reads before turning the bus around for writes
system.mem_ctrls0.rdPerTurnAround::total          641                       # Reads before turning the bus around for writes
system.mem_ctrls0.wrPerTurnAround::samples          641                       # Writes before turning the bus around for reads
system.mem_ctrls0.wrPerTurnAround::mean     17.277691                       # Writes before turning the bus around for reads
system.mem_ctrls0.wrPerTurnAround::gmean    17.242356                       # Writes before turning the bus around for reads
system.mem_ctrls0.wrPerTurnAround::stdev     1.141936                       # Writes before turning the bus around for reads
system.mem_ctrls0.wrPerTurnAround::16             243     37.91%     37.91% # Writes before turning the bus around for reads
system.mem_ctrls0.wrPerTurnAround::17               9      1.40%     39.31% # Writes before turning the bus around for reads
system.mem_ctrls0.wrPerTurnAround::18             369     57.57%     96.88% # Writes before turning the bus around for reads
system.mem_ctrls0.wrPerTurnAround::19              19      2.96%     99.84% # Writes before turning the bus around for reads
system.mem_ctrls0.wrPerTurnAround::31               1      0.16%    100.00% # Writes before turning the bus around for reads
system.mem_ctrls0.wrPerTurnAround::total          641                       # Writes before turning the bus around for reads
system.mem_ctrls0.totQLat                  3455834898                       # Total ticks spent queuing
system.mem_ctrls0.totMemAccLat             5043172398                       # Total ticks spent from burst creation until serviced by the DRAM
system.mem_ctrls0.totBusLat                 423290000                       # Total ticks spent in databus transfers
system.mem_ctrls0.avgQLat                    40821.13                       # Average queueing delay per DRAM burst
system.mem_ctrls0.avgBusLat                   5000.00                       # Average bus latency per DRAM burst
system.mem_ctrls0.avgMemAccLat               59571.13                       # Average memory access latency per DRAM burst
system.mem_ctrls0.avgRdBW                        5.10                       # Average DRAM read bandwidth in MiByte/s
system.mem_ctrls0.avgWrBW                        0.67                       # Average achieved write bandwidth in MiByte/s
system.mem_ctrls0.avgRdBWSys                     5.11                       # Average system read bandwidth in MiByte/s
system.mem_ctrls0.avgWrBWSys                     0.67                       # Average system write bandwidth in MiByte/s
system.mem_ctrls0.peakBW                     12800.00                       # Theoretical peak bandwidth in MiByte/s
system.mem_ctrls0.busUtil                        0.05                       # Data bus utilization in percentage
system.mem_ctrls0.busUtilRead                    0.04                       # Data bus utilization in percentage for reads
system.mem_ctrls0.busUtilWrite                   0.01                       # Data bus utilization in percentage for writes
system.mem_ctrls0.avgRdQLen                      1.01                       # Average read queue length when enqueuing
system.mem_ctrls0.avgWrQLen                     17.45                       # Average write queue length when enqueuing
system.mem_ctrls0.readRowHits                   48493                       # Number of row buffer hits during reads
system.mem_ctrls0.writeRowHits                   1636                       # Number of row buffer hits during writes
system.mem_ctrls0.readRowHitRate                57.28                       # Row buffer hit rate for reads
system.mem_ctrls0.writeRowHitRate               14.74                       # Row buffer hit rate for writes
system.mem_ctrls0.avgGap                  11083709.36                       # Average gap between requests
system.mem_ctrls0.pageHitRate                   52.35                       # Row buffer hit rate, read and write combined
system.mem_ctrls0_0.actEnergy               165098220                       # Energy for activate commands per rank (pJ)
system.mem_ctrls0_0.preEnergy                87751785                       # Energy for precharge commands per rank (pJ)
system.mem_ctrls0_0.readEnergy              301586460                       # Energy for read commands per rank (pJ)
system.mem_ctrls0_0.writeEnergy              28558620                       # Energy for write commands per rank (pJ)
system.mem_ctrls0_0.refreshEnergy        5998886400.000001                       # Energy for refresh commands per rank (pJ)
system.mem_ctrls0_0.actBackEnergy          2116870560                       # Energy for active background per rank (pJ)
system.mem_ctrls0_0.preBackEnergy           298163520                       # Energy for precharge background per rank (pJ)
system.mem_ctrls0_0.actPowerDownEnergy    16438830780                       # Energy for active power-down per rank (pJ)
system.mem_ctrls0_0.prePowerDownEnergy     8002681440                       # Energy for precharge power-down per rank (pJ)
system.mem_ctrls0_0.selfRefreshEnergy    240943694730                       # Energy for self refresh per rank (pJ)
system.mem_ctrls0_0.totalEnergy          274383790275                       # Total energy per rank (pJ)
system.mem_ctrls0_0.averagePower           258.390568                       # Core power per rank (mW)
system.mem_ctrls0_0.totalIdleTime        1056464131320                       # Total Idle time Per DRAM Rank
system.mem_ctrls0_0.memoryStateTime::IDLE    543673110                       # Time in different power states
system.mem_ctrls0_0.memoryStateTime::REF   2549072000                       # Time in different power states
system.mem_ctrls0_0.memoryStateTime::SREF 999582688259                       # Time in different power states
system.mem_ctrls0_0.memoryStateTime::PRE_PDN  20840375177                       # Time in different power states
system.mem_ctrls0_0.memoryStateTime::ACT   2329656756                       # Time in different power states
system.mem_ctrls0_0.memoryStateTime::ACT_PDN  36050067207                       # Time in different power states
system.mem_ctrls0_1.actEnergy               160514340                       # Energy for activate commands per rank (pJ)
system.mem_ctrls0_1.preEnergy                85315395                       # Energy for precharge commands per rank (pJ)
system.mem_ctrls0_1.readEnergy              302871660                       # Energy for read commands per rank (pJ)
system.mem_ctrls0_1.writeEnergy              29252880                       # Energy for write commands per rank (pJ)
system.mem_ctrls0_1.refreshEnergy        6005647440.000001                       # Energy for refresh commands per rank (pJ)
system.mem_ctrls0_1.actBackEnergy          2124387720                       # Energy for active background per rank (pJ)
system.mem_ctrls0_1.preBackEnergy           298140480                       # Energy for precharge background per rank (pJ)
system.mem_ctrls0_1.actPowerDownEnergy    16459471050                       # Energy for active power-down per rank (pJ)
system.mem_ctrls0_1.prePowerDownEnergy     7897671360                       # Energy for precharge power-down per rank (pJ)
system.mem_ctrls0_1.selfRefreshEnergy    241017045450                       # Energy for self refresh per rank (pJ)
system.mem_ctrls0_1.totalEnergy          274382079435                       # Total energy per rank (pJ)
system.mem_ctrls0_1.averagePower           258.388957                       # Core power per rank (mW)
system.mem_ctrls0_1.totalIdleTime        1056450502431                       # Total Idle time Per DRAM Rank
system.mem_ctrls0_1.memoryStateTime::IDLE    544841254                       # Time in different power states
system.mem_ctrls0_1.memoryStateTime::REF   2552196000                       # Time in different power states
system.mem_ctrls0_1.memoryStateTime::SREF 999794299759                       # Time in different power states
system.mem_ctrls0_1.memoryStateTime::PRE_PDN  20566896206                       # Time in different power states
system.mem_ctrls0_1.memoryStateTime::ACT   2341887604                       # Time in different power states
system.mem_ctrls0_1.memoryStateTime::ACT_PDN  36095411686                       # Time in different power states
system.mem_ctrls1.pwrStateResidencyTicks::UNDEFINED 31073309693559                       # Cumulative time (in ticks) in various power states
system.mem_ctrls1.bytes_read::cpu.inst            192                       # Number of bytes read from this memory
system.mem_ctrls1.bytes_read::cpu.data            192                       # Number of bytes read from this memory
system.mem_ctrls1.bytes_read::switch_cpus.inst       137280                       # Number of bytes read from this memory
system.mem_ctrls1.bytes_read::switch_cpus.data      3628736                       # Number of bytes read from this memory
system.mem_ctrls1.bytes_read::switch_cpus_1.inst       112512                       # Number of bytes read from this memory
system.mem_ctrls1.bytes_read::switch_cpus_1.data      1560448                       # Number of bytes read from this memory
system.mem_ctrls1.bytes_read::total           5439360                       # Number of bytes read from this memory
system.mem_ctrls1.bytes_inst_read::cpu.inst          192                       # Number of instructions bytes read from this memory
system.mem_ctrls1.bytes_inst_read::switch_cpus.inst       137280                       # Number of instructions bytes read from this memory
system.mem_ctrls1.bytes_inst_read::switch_cpus_1.inst       112512                       # Number of instructions bytes read from this memory
system.mem_ctrls1.bytes_inst_read::total       249984                       # Number of instructions bytes read from this memory
system.mem_ctrls1.bytes_written::writebacks       707968                       # Number of bytes written to this memory
system.mem_ctrls1.bytes_written::total         707968                       # Number of bytes written to this memory
system.mem_ctrls1.num_reads::cpu.inst               3                       # Number of read requests responded to by this memory
system.mem_ctrls1.num_reads::cpu.data               3                       # Number of read requests responded to by this memory
system.mem_ctrls1.num_reads::switch_cpus.inst         2145                       # Number of read requests responded to by this memory
system.mem_ctrls1.num_reads::switch_cpus.data        56699                       # Number of read requests responded to by this memory
system.mem_ctrls1.num_reads::switch_cpus_1.inst         1758                       # Number of read requests responded to by this memory
system.mem_ctrls1.num_reads::switch_cpus_1.data        24382                       # Number of read requests responded to by this memory
system.mem_ctrls1.num_reads::total              84990                       # Number of read requests responded to by this memory
system.mem_ctrls1.num_writes::writebacks        11062                       # Number of write requests responded to by this memory
system.mem_ctrls1.num_writes::total             11062                       # Number of write requests responded to by this memory
system.mem_ctrls1.bw_read::cpu.inst               181                       # Total read bandwidth from this memory (bytes/s)
system.mem_ctrls1.bw_read::cpu.data               181                       # Total read bandwidth from this memory (bytes/s)
system.mem_ctrls1.bw_read::switch_cpus.inst       129278                       # Total read bandwidth from this memory (bytes/s)
system.mem_ctrls1.bw_read::switch_cpus.data      3417225                       # Total read bandwidth from this memory (bytes/s)
system.mem_ctrls1.bw_read::switch_cpus_1.inst       105954                       # Total read bandwidth from this memory (bytes/s)
system.mem_ctrls1.bw_read::switch_cpus_1.data      1469493                       # Total read bandwidth from this memory (bytes/s)
system.mem_ctrls1.bw_read::total              5122312                       # Total read bandwidth from this memory (bytes/s)
system.mem_ctrls1.bw_inst_read::cpu.inst          181                       # Instruction read bandwidth from this memory (bytes/s)
system.mem_ctrls1.bw_inst_read::switch_cpus.inst       129278                       # Instruction read bandwidth from this memory (bytes/s)
system.mem_ctrls1.bw_inst_read::switch_cpus_1.inst       105954                       # Instruction read bandwidth from this memory (bytes/s)
system.mem_ctrls1.bw_inst_read::total          235413                       # Instruction read bandwidth from this memory (bytes/s)
system.mem_ctrls1.bw_write::writebacks         666702                       # Write bandwidth from this memory (bytes/s)
system.mem_ctrls1.bw_write::total              666702                       # Write bandwidth from this memory (bytes/s)
system.mem_ctrls1.bw_total::writebacks         666702                       # Total bandwidth to/from this memory (bytes/s)
system.mem_ctrls1.bw_total::cpu.inst              181                       # Total bandwidth to/from this memory (bytes/s)
system.mem_ctrls1.bw_total::cpu.data              181                       # Total bandwidth to/from this memory (bytes/s)
system.mem_ctrls1.bw_total::switch_cpus.inst       129278                       # Total bandwidth to/from this memory (bytes/s)
system.mem_ctrls1.bw_total::switch_cpus.data      3417225                       # Total bandwidth to/from this memory (bytes/s)
system.mem_ctrls1.bw_total::switch_cpus_1.inst       105954                       # Total bandwidth to/from this memory (bytes/s)
system.mem_ctrls1.bw_total::switch_cpus_1.data      1469493                       # Total bandwidth to/from this memory (bytes/s)
system.mem_ctrls1.bw_total::total             5789014                       # Total bandwidth to/from this memory (bytes/s)
system.mem_ctrls1.readReqs                      84990                       # Number of read requests accepted
system.mem_ctrls1.writeReqs                     11062                       # Number of write requests accepted
system.mem_ctrls1.readBursts                    84990                       # Number of DRAM read bursts, including those serviced by the write queue
system.mem_ctrls1.writeBursts                   11062                       # Number of DRAM write bursts, including those merged in the write queue
system.mem_ctrls1.bytesReadDRAM               5435840                       # Total number of bytes read from DRAM
system.mem_ctrls1.bytesReadWrQ                   3520                       # Total number of bytes read from write queue
system.mem_ctrls1.bytesWritten                 706240                       # Total number of bytes written to DRAM
system.mem_ctrls1.bytesReadSys                5439360                       # Total read bytes from the system interface side
system.mem_ctrls1.bytesWrittenSys              707968                       # Total written bytes from the system interface side
system.mem_ctrls1.servicedByWrQ                    55                       # Number of DRAM read bursts serviced by the write queue
system.mem_ctrls1.mergedWrBursts                    0                       # Number of DRAM write bursts merged with an existing one
system.mem_ctrls1.neitherReadNorWriteReqs            0                       # Number of requests that are neither read nor write
system.mem_ctrls1.perBankRdBursts::0             5333                       # Per bank write bursts
system.mem_ctrls1.perBankRdBursts::1             5414                       # Per bank write bursts
system.mem_ctrls1.perBankRdBursts::2             5881                       # Per bank write bursts
system.mem_ctrls1.perBankRdBursts::3             5565                       # Per bank write bursts
system.mem_ctrls1.perBankRdBursts::4             5226                       # Per bank write bursts
system.mem_ctrls1.perBankRdBursts::5             5081                       # Per bank write bursts
system.mem_ctrls1.perBankRdBursts::6             4842                       # Per bank write bursts
system.mem_ctrls1.perBankRdBursts::7             4810                       # Per bank write bursts
system.mem_ctrls1.perBankRdBursts::8             5151                       # Per bank write bursts
system.mem_ctrls1.perBankRdBursts::9             5018                       # Per bank write bursts
system.mem_ctrls1.perBankRdBursts::10            4931                       # Per bank write bursts
system.mem_ctrls1.perBankRdBursts::11            4694                       # Per bank write bursts
system.mem_ctrls1.perBankRdBursts::12            5985                       # Per bank write bursts
system.mem_ctrls1.perBankRdBursts::13            5560                       # Per bank write bursts
system.mem_ctrls1.perBankRdBursts::14            5603                       # Per bank write bursts
system.mem_ctrls1.perBankRdBursts::15            5841                       # Per bank write bursts
system.mem_ctrls1.perBankWrBursts::0              697                       # Per bank write bursts
system.mem_ctrls1.perBankWrBursts::1              687                       # Per bank write bursts
system.mem_ctrls1.perBankWrBursts::2              733                       # Per bank write bursts
system.mem_ctrls1.perBankWrBursts::3              738                       # Per bank write bursts
system.mem_ctrls1.perBankWrBursts::4              734                       # Per bank write bursts
system.mem_ctrls1.perBankWrBursts::5              648                       # Per bank write bursts
system.mem_ctrls1.perBankWrBursts::6              522                       # Per bank write bursts
system.mem_ctrls1.perBankWrBursts::7              611                       # Per bank write bursts
system.mem_ctrls1.perBankWrBursts::8              715                       # Per bank write bursts
system.mem_ctrls1.perBankWrBursts::9              497                       # Per bank write bursts
system.mem_ctrls1.perBankWrBursts::10             602                       # Per bank write bursts
system.mem_ctrls1.perBankWrBursts::11             596                       # Per bank write bursts
system.mem_ctrls1.perBankWrBursts::12             867                       # Per bank write bursts
system.mem_ctrls1.perBankWrBursts::13             786                       # Per bank write bursts
system.mem_ctrls1.perBankWrBursts::14             801                       # Per bank write bursts
system.mem_ctrls1.perBankWrBursts::15             801                       # Per bank write bursts
system.mem_ctrls1.numRdRetry                        0                       # Number of times read queue was full causing retry
system.mem_ctrls1.numWrRetry                        0                       # Number of times write queue was full causing retry
system.mem_ctrls1.totGap                 1061894653056                       # Total gap between requests
system.mem_ctrls1.readPktSize::0                    0                       # Read request sizes (log2)
system.mem_ctrls1.readPktSize::1                    0                       # Read request sizes (log2)
system.mem_ctrls1.readPktSize::2                    0                       # Read request sizes (log2)
system.mem_ctrls1.readPktSize::3                    0                       # Read request sizes (log2)
system.mem_ctrls1.readPktSize::4                    0                       # Read request sizes (log2)
system.mem_ctrls1.readPktSize::5                    0                       # Read request sizes (log2)
system.mem_ctrls1.readPktSize::6                84990                       # Read request sizes (log2)
system.mem_ctrls1.writePktSize::0                   0                       # Write request sizes (log2)
system.mem_ctrls1.writePktSize::1                   0                       # Write request sizes (log2)
system.mem_ctrls1.writePktSize::2                   0                       # Write request sizes (log2)
system.mem_ctrls1.writePktSize::3                   0                       # Write request sizes (log2)
system.mem_ctrls1.writePktSize::4                   0                       # Write request sizes (log2)
system.mem_ctrls1.writePktSize::5                   0                       # Write request sizes (log2)
system.mem_ctrls1.writePktSize::6               11062                       # Write request sizes (log2)
system.mem_ctrls1.rdQLenPdf::0                  82407                       # What read queue length does an incoming req see
system.mem_ctrls1.rdQLenPdf::1                   2419                       # What read queue length does an incoming req see
system.mem_ctrls1.rdQLenPdf::2                     98                       # What read queue length does an incoming req see
system.mem_ctrls1.rdQLenPdf::3                     11                       # What read queue length does an incoming req see
system.mem_ctrls1.rdQLenPdf::4                      0                       # What read queue length does an incoming req see
system.mem_ctrls1.rdQLenPdf::5                      0                       # What read queue length does an incoming req see
system.mem_ctrls1.rdQLenPdf::6                      0                       # What read queue length does an incoming req see
system.mem_ctrls1.rdQLenPdf::7                      0                       # What read queue length does an incoming req see
system.mem_ctrls1.rdQLenPdf::8                      0                       # What read queue length does an incoming req see
system.mem_ctrls1.rdQLenPdf::9                      0                       # What read queue length does an incoming req see
system.mem_ctrls1.rdQLenPdf::10                     0                       # What read queue length does an incoming req see
system.mem_ctrls1.rdQLenPdf::11                     0                       # What read queue length does an incoming req see
system.mem_ctrls1.rdQLenPdf::12                     0                       # What read queue length does an incoming req see
system.mem_ctrls1.rdQLenPdf::13                     0                       # What read queue length does an incoming req see
system.mem_ctrls1.rdQLenPdf::14                     0                       # What read queue length does an incoming req see
system.mem_ctrls1.rdQLenPdf::15                     0                       # What read queue length does an incoming req see
system.mem_ctrls1.rdQLenPdf::16                     0                       # What read queue length does an incoming req see
system.mem_ctrls1.rdQLenPdf::17                     0                       # What read queue length does an incoming req see
system.mem_ctrls1.rdQLenPdf::18                     0                       # What read queue length does an incoming req see
system.mem_ctrls1.rdQLenPdf::19                     0                       # What read queue length does an incoming req see
system.mem_ctrls1.rdQLenPdf::20                     0                       # What read queue length does an incoming req see
system.mem_ctrls1.rdQLenPdf::21                     0                       # What read queue length does an incoming req see
system.mem_ctrls1.rdQLenPdf::22                     0                       # What read queue length does an incoming req see
system.mem_ctrls1.rdQLenPdf::23                     0                       # What read queue length does an incoming req see
system.mem_ctrls1.rdQLenPdf::24                     0                       # What read queue length does an incoming req see
system.mem_ctrls1.rdQLenPdf::25                     0                       # What read queue length does an incoming req see
system.mem_ctrls1.rdQLenPdf::26                     0                       # What read queue length does an incoming req see
system.mem_ctrls1.rdQLenPdf::27                     0                       # What read queue length does an incoming req see
system.mem_ctrls1.rdQLenPdf::28                     0                       # What read queue length does an incoming req see
system.mem_ctrls1.rdQLenPdf::29                     0                       # What read queue length does an incoming req see
system.mem_ctrls1.rdQLenPdf::30                     0                       # What read queue length does an incoming req see
system.mem_ctrls1.rdQLenPdf::31                     0                       # What read queue length does an incoming req see
system.mem_ctrls1.wrQLenPdf::0                      2                       # What write queue length does an incoming req see
system.mem_ctrls1.wrQLenPdf::1                      2                       # What write queue length does an incoming req see
system.mem_ctrls1.wrQLenPdf::2                      2                       # What write queue length does an incoming req see
system.mem_ctrls1.wrQLenPdf::3                      2                       # What write queue length does an incoming req see
system.mem_ctrls1.wrQLenPdf::4                      2                       # What write queue length does an incoming req see
system.mem_ctrls1.wrQLenPdf::5                      2                       # What write queue length does an incoming req see
system.mem_ctrls1.wrQLenPdf::6                      2                       # What write queue length does an incoming req see
system.mem_ctrls1.wrQLenPdf::7                      2                       # What write queue length does an incoming req see
system.mem_ctrls1.wrQLenPdf::8                      2                       # What write queue length does an incoming req see
system.mem_ctrls1.wrQLenPdf::9                      2                       # What write queue length does an incoming req see
system.mem_ctrls1.wrQLenPdf::10                     2                       # What write queue length does an incoming req see
system.mem_ctrls1.wrQLenPdf::11                     2                       # What write queue length does an incoming req see
system.mem_ctrls1.wrQLenPdf::12                     2                       # What write queue length does an incoming req see
system.mem_ctrls1.wrQLenPdf::13                     2                       # What write queue length does an incoming req see
system.mem_ctrls1.wrQLenPdf::14                     2                       # What write queue length does an incoming req see
system.mem_ctrls1.wrQLenPdf::15                   380                       # What write queue length does an incoming req see
system.mem_ctrls1.wrQLenPdf::16                   398                       # What write queue length does an incoming req see
system.mem_ctrls1.wrQLenPdf::17                   615                       # What write queue length does an incoming req see
system.mem_ctrls1.wrQLenPdf::18                   640                       # What write queue length does an incoming req see
system.mem_ctrls1.wrQLenPdf::19                   643                       # What write queue length does an incoming req see
system.mem_ctrls1.wrQLenPdf::20                   644                       # What write queue length does an incoming req see
system.mem_ctrls1.wrQLenPdf::21                   645                       # What write queue length does an incoming req see
system.mem_ctrls1.wrQLenPdf::22                   643                       # What write queue length does an incoming req see
system.mem_ctrls1.wrQLenPdf::23                   648                       # What write queue length does an incoming req see
system.mem_ctrls1.wrQLenPdf::24                   644                       # What write queue length does an incoming req see
system.mem_ctrls1.wrQLenPdf::25                   642                       # What write queue length does an incoming req see
system.mem_ctrls1.wrQLenPdf::26                   642                       # What write queue length does an incoming req see
system.mem_ctrls1.wrQLenPdf::27                   643                       # What write queue length does an incoming req see
system.mem_ctrls1.wrQLenPdf::28                   641                       # What write queue length does an incoming req see
system.mem_ctrls1.wrQLenPdf::29                   642                       # What write queue length does an incoming req see
system.mem_ctrls1.wrQLenPdf::30                   641                       # What write queue length does an incoming req see
system.mem_ctrls1.wrQLenPdf::31                   639                       # What write queue length does an incoming req see
system.mem_ctrls1.wrQLenPdf::32                   638                       # What write queue length does an incoming req see
system.mem_ctrls1.wrQLenPdf::33                     2                       # What write queue length does an incoming req see
system.mem_ctrls1.wrQLenPdf::34                     1                       # What write queue length does an incoming req see
system.mem_ctrls1.wrQLenPdf::35                     1                       # What write queue length does an incoming req see
system.mem_ctrls1.wrQLenPdf::36                     0                       # What write queue length does an incoming req see
system.mem_ctrls1.wrQLenPdf::37                     0                       # What write queue length does an incoming req see
system.mem_ctrls1.wrQLenPdf::38                     0                       # What write queue length does an incoming req see
system.mem_ctrls1.wrQLenPdf::39                     0                       # What write queue length does an incoming req see
system.mem_ctrls1.wrQLenPdf::40                     0                       # What write queue length does an incoming req see
system.mem_ctrls1.wrQLenPdf::41                     0                       # What write queue length does an incoming req see
system.mem_ctrls1.wrQLenPdf::42                     0                       # What write queue length does an incoming req see
system.mem_ctrls1.wrQLenPdf::43                     0                       # What write queue length does an incoming req see
system.mem_ctrls1.wrQLenPdf::44                     0                       # What write queue length does an incoming req see
system.mem_ctrls1.wrQLenPdf::45                     0                       # What write queue length does an incoming req see
system.mem_ctrls1.wrQLenPdf::46                     0                       # What write queue length does an incoming req see
system.mem_ctrls1.wrQLenPdf::47                     0                       # What write queue length does an incoming req see
system.mem_ctrls1.wrQLenPdf::48                     0                       # What write queue length does an incoming req see
system.mem_ctrls1.wrQLenPdf::49                     0                       # What write queue length does an incoming req see
system.mem_ctrls1.wrQLenPdf::50                     0                       # What write queue length does an incoming req see
system.mem_ctrls1.wrQLenPdf::51                     0                       # What write queue length does an incoming req see
system.mem_ctrls1.wrQLenPdf::52                     0                       # What write queue length does an incoming req see
system.mem_ctrls1.wrQLenPdf::53                     0                       # What write queue length does an incoming req see
system.mem_ctrls1.wrQLenPdf::54                     0                       # What write queue length does an incoming req see
system.mem_ctrls1.wrQLenPdf::55                     0                       # What write queue length does an incoming req see
system.mem_ctrls1.wrQLenPdf::56                     0                       # What write queue length does an incoming req see
system.mem_ctrls1.wrQLenPdf::57                     0                       # What write queue length does an incoming req see
system.mem_ctrls1.wrQLenPdf::58                     0                       # What write queue length does an incoming req see
system.mem_ctrls1.wrQLenPdf::59                     0                       # What write queue length does an incoming req see
system.mem_ctrls1.wrQLenPdf::60                     0                       # What write queue length does an incoming req see
system.mem_ctrls1.wrQLenPdf::61                     0                       # What write queue length does an incoming req see
system.mem_ctrls1.wrQLenPdf::62                     0                       # What write queue length does an incoming req see
system.mem_ctrls1.wrQLenPdf::63                     0                       # What write queue length does an incoming req see
system.mem_ctrls1.bytesPerActivate::samples        45863                       # Bytes accessed per row activation
system.mem_ctrls1.bytesPerActivate::mean   133.919543                       # Bytes accessed per row activation
system.mem_ctrls1.bytesPerActivate::gmean    95.617077                       # Bytes accessed per row activation
system.mem_ctrls1.bytesPerActivate::stdev   163.897347                       # Bytes accessed per row activation
system.mem_ctrls1.bytesPerActivate::0-127        30987     67.56%     67.56% # Bytes accessed per row activation
system.mem_ctrls1.bytesPerActivate::128-255         9035     19.70%     87.26% # Bytes accessed per row activation
system.mem_ctrls1.bytesPerActivate::256-383         2217      4.83%     92.10% # Bytes accessed per row activation
system.mem_ctrls1.bytesPerActivate::384-511         1305      2.85%     94.94% # Bytes accessed per row activation
system.mem_ctrls1.bytesPerActivate::512-639          798      1.74%     96.68% # Bytes accessed per row activation
system.mem_ctrls1.bytesPerActivate::640-767          509      1.11%     97.79% # Bytes accessed per row activation
system.mem_ctrls1.bytesPerActivate::768-895          339      0.74%     98.53% # Bytes accessed per row activation
system.mem_ctrls1.bytesPerActivate::896-1023          211      0.46%     98.99% # Bytes accessed per row activation
system.mem_ctrls1.bytesPerActivate::1024-1151          462      1.01%    100.00% # Bytes accessed per row activation
system.mem_ctrls1.bytesPerActivate::total        45863                       # Bytes accessed per row activation
system.mem_ctrls1.rdPerTurnAround::samples          639                       # Reads before turning the bus around for writes
system.mem_ctrls1.rdPerTurnAround::mean    132.862285                       # Reads before turning the bus around for writes
system.mem_ctrls1.rdPerTurnAround::stdev  1101.066190                       # Reads before turning the bus around for writes
system.mem_ctrls1.rdPerTurnAround::0-1023          638     99.84%     99.84% # Reads before turning the bus around for writes
system.mem_ctrls1.rdPerTurnAround::27648-28671            1      0.16%    100.00% # Reads before turning the bus around for writes
system.mem_ctrls1.rdPerTurnAround::total          639                       # Reads before turning the bus around for writes
system.mem_ctrls1.wrPerTurnAround::samples          639                       # Writes before turning the bus around for reads
system.mem_ctrls1.wrPerTurnAround::mean     17.269171                       # Writes before turning the bus around for reads
system.mem_ctrls1.wrPerTurnAround::gmean    17.231536                       # Writes before turning the bus around for reads
system.mem_ctrls1.wrPerTurnAround::stdev     1.179569                       # Writes before turning the bus around for reads
system.mem_ctrls1.wrPerTurnAround::16             251     39.28%     39.28% # Writes before turning the bus around for reads
system.mem_ctrls1.wrPerTurnAround::17               9      1.41%     40.69% # Writes before turning the bus around for reads
system.mem_ctrls1.wrPerTurnAround::18             353     55.24%     95.93% # Writes before turning the bus around for reads
system.mem_ctrls1.wrPerTurnAround::19              21      3.29%     99.22% # Writes before turning the bus around for reads
system.mem_ctrls1.wrPerTurnAround::20               2      0.31%     99.53% # Writes before turning the bus around for reads
system.mem_ctrls1.wrPerTurnAround::21               2      0.31%     99.84% # Writes before turning the bus around for reads
system.mem_ctrls1.wrPerTurnAround::31               1      0.16%    100.00% # Writes before turning the bus around for reads
system.mem_ctrls1.wrPerTurnAround::total          639                       # Writes before turning the bus around for reads
system.mem_ctrls1.totQLat                  3482291703                       # Total ticks spent queuing
system.mem_ctrls1.totMemAccLat             5074822953                       # Total ticks spent from burst creation until serviced by the DRAM
system.mem_ctrls1.totBusLat                 424675000                       # Total ticks spent in databus transfers
system.mem_ctrls1.avgQLat                    40999.49                       # Average queueing delay per DRAM burst
system.mem_ctrls1.avgBusLat                   5000.00                       # Average bus latency per DRAM burst
system.mem_ctrls1.avgMemAccLat               59749.49                       # Average memory access latency per DRAM burst
system.mem_ctrls1.avgRdBW                        5.12                       # Average DRAM read bandwidth in MiByte/s
system.mem_ctrls1.avgWrBW                        0.67                       # Average achieved write bandwidth in MiByte/s
system.mem_ctrls1.avgRdBWSys                     5.12                       # Average system read bandwidth in MiByte/s
system.mem_ctrls1.avgWrBWSys                     0.67                       # Average system write bandwidth in MiByte/s
system.mem_ctrls1.peakBW                     12800.00                       # Theoretical peak bandwidth in MiByte/s
system.mem_ctrls1.busUtil                        0.05                       # Data bus utilization in percentage
system.mem_ctrls1.busUtilRead                    0.04                       # Data bus utilization in percentage for reads
system.mem_ctrls1.busUtilWrite                   0.01                       # Data bus utilization in percentage for writes
system.mem_ctrls1.avgRdQLen                      1.01                       # Average read queue length when enqueuing
system.mem_ctrls1.avgWrQLen                     17.97                       # Average write queue length when enqueuing
system.mem_ctrls1.readRowHits                   48462                       # Number of row buffer hits during reads
system.mem_ctrls1.writeRowHits                   1643                       # Number of row buffer hits during writes
system.mem_ctrls1.readRowHitRate                57.06                       # Row buffer hit rate for reads
system.mem_ctrls1.writeRowHitRate               14.85                       # Row buffer hit rate for writes
system.mem_ctrls1.avgGap                  11055414.29                       # Average gap between requests
system.mem_ctrls1.pageHitRate                   52.19                       # Row buffer hit rate, read and write combined
system.mem_ctrls1_0.actEnergy               164505600                       # Energy for activate commands per rank (pJ)
system.mem_ctrls1_0.preEnergy                87433005                       # Energy for precharge commands per rank (pJ)
system.mem_ctrls1_0.readEnergy              300965280                       # Energy for read commands per rank (pJ)
system.mem_ctrls1_0.writeEnergy              28031400                       # Energy for write commands per rank (pJ)
system.mem_ctrls1_0.refreshEnergy        6030233040.000001                       # Energy for refresh commands per rank (pJ)
system.mem_ctrls1_0.actBackEnergy          2119751340                       # Energy for active background per rank (pJ)
system.mem_ctrls1_0.preBackEnergy           297399840                       # Energy for precharge background per rank (pJ)
system.mem_ctrls1_0.actPowerDownEnergy    16518040260                       # Energy for active power-down per rank (pJ)
system.mem_ctrls1_0.prePowerDownEnergy     8014330560                       # Energy for precharge power-down per rank (pJ)
system.mem_ctrls1_0.selfRefreshEnergy    240908248905                       # Energy for self refresh per rank (pJ)
system.mem_ctrls1_0.totalEnergy          274471520940                       # Total energy per rank (pJ)
system.mem_ctrls1_0.averagePower           258.473185                       # Core power per rank (mW)
system.mem_ctrls1_0.totalIdleTime        1056465036696                       # Total Idle time Per DRAM Rank
system.mem_ctrls1_0.memoryStateTime::IDLE    542143949                       # Time in different power states
system.mem_ctrls1_0.memoryStateTime::REF   2562524000                       # Time in different power states
system.mem_ctrls1_0.memoryStateTime::SREF 999372298678                       # Time in different power states
system.mem_ctrls1_0.memoryStateTime::PRE_PDN  20870538474                       # Time in different power states
system.mem_ctrls1_0.memoryStateTime::ACT   2324057033                       # Time in different power states
system.mem_ctrls1_0.memoryStateTime::ACT_PDN  36223970375                       # Time in different power states
system.mem_ctrls1_1.actEnergy               162970500                       # Energy for activate commands per rank (pJ)
system.mem_ctrls1_1.preEnergy                86617080                       # Energy for precharge commands per rank (pJ)
system.mem_ctrls1_1.readEnergy              305470620                       # Energy for read commands per rank (pJ)
system.mem_ctrls1_1.writeEnergy              29571300                       # Energy for write commands per rank (pJ)
system.mem_ctrls1_1.refreshEnergy        6072643200.000001                       # Energy for refresh commands per rank (pJ)
system.mem_ctrls1_1.actBackEnergy          2160796470                       # Energy for active background per rank (pJ)
system.mem_ctrls1_1.preBackEnergy           303127680                       # Energy for precharge background per rank (pJ)
system.mem_ctrls1_1.actPowerDownEnergy    16569746670                       # Energy for active power-down per rank (pJ)
system.mem_ctrls1_1.prePowerDownEnergy     7986476640                       # Energy for precharge power-down per rank (pJ)
system.mem_ctrls1_1.selfRefreshEnergy    240902789115                       # Energy for self refresh per rank (pJ)
system.mem_ctrls1_1.totalEnergy          274582067565                       # Total energy per rank (pJ)
system.mem_ctrls1_1.averagePower           258.577289                       # Core power per rank (mW)
system.mem_ctrls1_1.totalIdleTime        1056363333484                       # Total Idle time Per DRAM Rank
system.mem_ctrls1_1.memoryStateTime::IDLE    555287106                       # Time in different power states
system.mem_ctrls1_1.memoryStateTime::REF   2580758000                       # Time in different power states
system.mem_ctrls1_1.memoryStateTime::SREF 999228123031                       # Time in different power states
system.mem_ctrls1_1.memoryStateTime::PRE_PDN  20798193245                       # Time in different power states
system.mem_ctrls1_1.memoryStateTime::ACT   2395945191                       # Time in different power states
system.mem_ctrls1_1.memoryStateTime::ACT_PDN  36337225936                       # Time in different power states
system.pwrStateResidencyTicks::UNDEFINED 31073309693559                       # Cumulative time (in ticks) in various power states
system.cpu.branchPred.lookups                       6                       # Number of BP lookups
system.cpu.branchPred.condPredicted                 3                       # Number of conditional branches predicted
system.cpu.branchPred.condIncorrect                 3                       # Number of conditional branches incorrect
system.cpu.branchPred.BTBLookups                    3                       # Number of BTB lookups
system.cpu.branchPred.BTBHits                       0                       # Number of BTB hits
system.cpu.branchPred.BTBCorrect                    0                       # Number of correct BTB predictions (this stat may not work properly.
system.cpu.branchPred.BTBHitPct              0.000000                       # BTB Hit Percentage
system.cpu.branchPred.usedRAS                       0                       # Number of times the RAS was used to get a target.
system.cpu.branchPred.RASInCorrect                  0                       # Number of incorrect RAS predictions.
system.cpu.branchPred.indirectLookups               1                       # Number of indirect predictor lookups.
system.cpu.branchPred.indirectHits                  0                       # Number of indirect target hits.
system.cpu.branchPred.indirectMisses                1                       # Number of indirect misses.
system.cpu.branchPredindirectMispredicted            1                       # Number of mispredicted indirect branches.
system.cpu_voltage_domain.voltage                   1                       # Voltage in Volts
system.cpu_clk_domain.clock                       333                       # Clock period in ticks
system.cpu.dtb.fetch_hits                           0                       # ITB hits
system.cpu.dtb.fetch_misses                         0                       # ITB misses
system.cpu.dtb.fetch_acv                            0                       # ITB acv
system.cpu.dtb.fetch_accesses                       0                       # ITB accesses
system.cpu.dtb.read_hits                            5                       # DTB read hits
system.cpu.dtb.read_misses                          0                       # DTB read misses
system.cpu.dtb.read_acv                             0                       # DTB read access violations
system.cpu.dtb.read_accesses                        5                       # DTB read accesses
system.cpu.dtb.write_hits                           0                       # DTB write hits
system.cpu.dtb.write_misses                         0                       # DTB write misses
system.cpu.dtb.write_acv                            0                       # DTB write access violations
system.cpu.dtb.write_accesses                       0                       # DTB write accesses
system.cpu.dtb.data_hits                            5                       # DTB hits
system.cpu.dtb.data_misses                          0                       # DTB misses
system.cpu.dtb.data_acv                             0                       # DTB access violations
system.cpu.dtb.data_accesses                        5                       # DTB accesses
system.cpu.itb.fetch_hits                           7                       # ITB hits
system.cpu.itb.fetch_misses                         0                       # ITB misses
system.cpu.itb.fetch_acv                            0                       # ITB acv
system.cpu.itb.fetch_accesses                       7                       # ITB accesses
system.cpu.itb.read_hits                            0                       # DTB read hits
system.cpu.itb.read_misses                          0                       # DTB read misses
system.cpu.itb.read_acv                             0                       # DTB read access violations
system.cpu.itb.read_accesses                        0                       # DTB read accesses
system.cpu.itb.write_hits                           0                       # DTB write hits
system.cpu.itb.write_misses                         0                       # DTB write misses
system.cpu.itb.write_acv                            0                       # DTB write access violations
system.cpu.itb.write_accesses                       0                       # DTB write accesses
system.cpu.itb.data_hits                            0                       # DTB hits
system.cpu.itb.data_misses                          0                       # DTB misses
system.cpu.itb.data_acv                             0                       # DTB access violations
system.cpu.itb.data_accesses                        0                       # DTB accesses
system.cpu.workload.num_syscalls                    9                       # Number of system calls
system.cpu.pwrStateResidencyTicks::ON    1061895532509                       # Cumulative time (in ticks) in various power states
system.cpu.numCycles                              607                       # number of cpu cycles simulated
system.cpu.numWorkItemsStarted                      0                       # number of work items this cpu started
system.cpu.numWorkItemsCompleted                    0                       # number of work items this cpu completed
system.cpu.fetch.icacheStallCycles                 50                       # Number of cycles fetch is stalled on an Icache miss
system.cpu.fetch.Insts                             34                       # Number of instructions fetch has processed
system.cpu.fetch.Branches                           6                       # Number of branches that fetch encountered
system.cpu.fetch.Cycles                             5                       # Number of cycles fetch has run and was not squashing or blocked
system.cpu.fetch.SquashCycles                       9                       # Number of cycles fetch has spent squashing
system.cpu.fetch.PendingDrainCycles                 6                       # Number of cycles fetch has spent waiting on pipes to drain
system.cpu.fetch.CacheLines                         7                       # Number of cache lines fetched
system.cpu.fetch.IcacheSquashes                     4                       # Number of outstanding Icache misses that were squashed
system.cpu.fetch.rateDist::samples                 65                       # Number of instructions fetched each cycle (Total)
system.cpu.fetch.rateDist::mean              0.523077                       # Number of instructions fetched each cycle (Total)
system.cpu.fetch.rateDist::stdev             1.880057                       # Number of instructions fetched each cycle (Total)
system.cpu.fetch.rateDist::underflows               0      0.00%      0.00% # Number of instructions fetched each cycle (Total)
system.cpu.fetch.rateDist::0                       60     92.31%     92.31% # Number of instructions fetched each cycle (Total)
system.cpu.fetch.rateDist::1                        0      0.00%     92.31% # Number of instructions fetched each cycle (Total)
system.cpu.fetch.rateDist::2                        0      0.00%     92.31% # Number of instructions fetched each cycle (Total)
system.cpu.fetch.rateDist::3                        0      0.00%     92.31% # Number of instructions fetched each cycle (Total)
system.cpu.fetch.rateDist::4                        1      1.54%     93.85% # Number of instructions fetched each cycle (Total)
system.cpu.fetch.rateDist::5                        0      0.00%     93.85% # Number of instructions fetched each cycle (Total)
system.cpu.fetch.rateDist::6                        1      1.54%     95.38% # Number of instructions fetched each cycle (Total)
system.cpu.fetch.rateDist::7                        0      0.00%     95.38% # Number of instructions fetched each cycle (Total)
system.cpu.fetch.rateDist::8                        3      4.62%    100.00% # Number of instructions fetched each cycle (Total)
system.cpu.fetch.rateDist::overflows                0      0.00%    100.00% # Number of instructions fetched each cycle (Total)
system.cpu.fetch.rateDist::min_value                0                       # Number of instructions fetched each cycle (Total)
system.cpu.fetch.rateDist::max_value                8                       # Number of instructions fetched each cycle (Total)
system.cpu.fetch.rateDist::total                   65                       # Number of instructions fetched each cycle (Total)
system.cpu.fetch.branchRate                  0.009885                       # Number of branch fetches per cycle
system.cpu.fetch.rate                        0.056013                       # Number of inst fetches per cycle
[...]
system.switch_cpus_1.iq.int_inst_queue_wakeup_accesses    235658078                       # Number of integer instruction queue wakeup accesses
system.switch_cpus_1.iq.fp_inst_queue_reads       480292                       # Number of floating instruction queue reads
system.switch_cpus_1.iq.fp_inst_queue_writes       347187                       # Number of floating instruction queue writes
system.switch_cpus_1.iq.fp_inst_queue_wakeup_accesses       212133                       # Number of floating instruction queue wakeup accesses
system.switch_cpus_1.iq.int_alu_accesses    249208386                       # Number of integer alu accesses
system.switch_cpus_1.iq.fp_alu_accesses        246831                       # Number of floating point alu accesses
system.switch_cpus_1.iew.lsq.thread0.forwLoads      8563163                       # Number of loads that had data forwarded from stores
system.switch_cpus_1.iew.lsq.thread0.invAddrLoads            0                       # Number of loads ignored due to an invalid address
system.switch_cpus_1.iew.lsq.thread0.squashedLoads     24839075                       # Number of loads squashed
system.switch_cpus_1.iew.lsq.thread0.ignoredResponses        42739                       # Number of memory responses ignored because the instruction is squashed
system.switch_cpus_1.iew.lsq.thread0.memOrderViolation        82203                       # Number of memory ordering violations
system.switch_cpus_1.iew.lsq.thread0.squashedStores     10659553                       # Number of stores squashed
system.switch_cpus_1.iew.lsq.thread0.invAddrSwpfs            0                       # Number of software prefetches ignored due to an invalid address
system.switch_cpus_1.iew.lsq.thread0.blockedLoads            0                       # Number of blocked loads due to partial load-store forwarding
system.switch_cpus_1.iew.lsq.thread0.rescheduledLoads           46                       # Number of loads that were rescheduled
system.switch_cpus_1.iew.lsq.thread0.cacheBlocked       166003                       # Number of times an access to memory failed due to the cache being blocked
system.switch_cpus_1.iew.iewIdleCycles              0                       # Number of cycles IEW is idle
system.switch_cpus_1.iew.iewSquashCycles      2082186                       # Number of cycles IEW is squashing
system.switch_cpus_1.iew.iewBlockCycles      15062235                       # Number of cycles IEW is blocking
system.switch_cpus_1.iew.iewUnblockCycles      9405538                       # Number of cycles IEW is unblocking
system.switch_cpus_1.iew.iewDispatchedInsts    281060386                       # Number of instructions dispatched to IQ
system.switch_cpus_1.iew.iewDispSquashedInsts       655664                       # Number of squashed instructions skipped by dispatch
system.switch_cpus_1.iew.iewDispLoadInsts     89946603                       # Number of dispatched load instructions
system.switch_cpus_1.iew.iewDispStoreInsts     38831514                       # Number of dispatched store instructions
system.switch_cpus_1.iew.iewDispNonSpecInsts        84577                       # Number of dispatched non-speculative instructions
system.switch_cpus_1.iew.iewIQFullEvents       337952                       # Number of times the IQ has become full, causing a stall
system.switch_cpus_1.iew.iewLSQFullEvents      9094395                       # Number of times the LSQ has become full, causing a stall
system.switch_cpus_1.iew.memOrderViolationEvents        82203                       # Number of memory order violations
system.switch_cpus_1.iew.predictedTakenIncorrect       941946                       # Number of branches that were predicted taken incorrectly
system.switch_cpus_1.iew.predictedNotTakenIncorrect       733361                       # Number of branches that were predicted not taken incorrectly
system.switch_cpus_1.iew.branchMispredicts      1675307                       # Number of branch mispredicts detected at execute
system.switch_cpus_1.iew.iewExecutedInsts    239253831                       # Number of executed instructions
system.switch_cpus_1.iew.iewExecLoadInsts     78329841                       # Number of load instructions executed
system.switch_cpus_1.iew.iewExecSquashedInsts      2950614                       # Number of squashed instructions skipped in execute
system.switch_cpus_1.iew.exec_swp                   0                       # number of swp insts executed
system.switch_cpus_1.iew.exec_nop             6951691                       # number of nop insts executed
system.switch_cpus_1.iew.exec_refs          112516435                       # number of memory reference insts executed
system.switch_cpus_1.iew.exec_branches       39852894                       # Number of branches executed
system.switch_cpus_1.iew.exec_stores         34186594                       # Number of stores executed
system.switch_cpus_1.iew.exec_rate           1.279313                       # Inst execution rate
system.switch_cpus_1.iew.wb_sent            237792151                       # cumulative count of insts sent to commit
system.switch_cpus_1.iew.wb_count           235870211                       # cumulative count of insts written-back
system.switch_cpus_1.iew.wb_producers       131550322                       # num instructions producing a value
system.switch_cpus_1.iew.wb_consumers       175139949                       # num instructions consuming a value
system.switch_cpus_1.iew.wb_rate             1.261221                       # insts written-back per cycle
system.switch_cpus_1.iew.wb_fanout           0.751115                       # average fanout of values written-back
system.switch_cpus_1.commit.commitSquashedInsts     68057084                       # The number of squashed insts skipped by commit
system.switch_cpus_1.commit.commitNonSpecStalls       131982                       # The number of times commit has been forced to stall to communicate backwards
system.switch_cpus_1.commit.branchMispredicts      1462074                       # The number of times a branch was mispredicted
system.switch_cpus_1.commit.committed_per_cycle::samples    168236708                       # Number of insts commited each cycle
system.switch_cpus_1.commit.committed_per_cycle::mean     1.217154                       # Number of insts commited each cycle
system.switch_cpus_1.commit.committed_per_cycle::stdev     2.286875                       # Number of insts commited each cycle
system.switch_cpus_1.commit.committed_per_cycle::underflows            0      0.00%      0.00% # Number of insts commited each cycle
system.switch_cpus_1.commit.committed_per_cycle::0    106800625     63.48%     63.48% # Number of insts commited each cycle
system.switch_cpus_1.commit.committed_per_cycle::1     25526017     15.17%     78.66% # Number of insts commited each cycle
system.switch_cpus_1.commit.committed_per_cycle::2      9039515      5.37%     84.03% # Number of insts commited each cycle
system.switch_cpus_1.commit.committed_per_cycle::3      4126652      2.45%     86.48% # Number of insts commited each cycle
system.switch_cpus_1.commit.committed_per_cycle::4      3889606      2.31%     88.79% # Number of insts commited each cycle
system.switch_cpus_1.commit.committed_per_cycle::5      3301703      1.96%     90.76% # Number of insts commited each cycle
system.switch_cpus_1.commit.committed_per_cycle::6      2827098      1.68%     92.44% # Number of insts commited each cycle
system.switch_cpus_1.commit.committed_per_cycle::7      2048421      1.22%     93.65% # Number of insts commited each cycle
system.switch_cpus_1.commit.committed_per_cycle::8     10677071      6.35%    100.00% # Number of insts commited each cycle
system.switch_cpus_1.commit.committed_per_cycle::overflows            0      0.00%    100.00% # Number of insts commited each cycle
system.switch_cpus_1.commit.committed_per_cycle::min_value            0                       # Number of insts commited each cycle
system.switch_cpus_1.commit.committed_per_cycle::max_value            8                       # Number of insts commited each cycle
system.switch_cpus_1.commit.committed_per_cycle::total    168236708                       # Number of insts commited each cycle
system.switch_cpus_1.commit.committedInsts    204770045                       # Number of instructions committed
system.switch_cpus_1.commit.committedOps    204770045                       # Number of ops (including micro ops) committed
system.switch_cpus_1.commit.swp_count               0                       # Number of s/w prefetches committed
system.switch_cpus_1.commit.refs             93279484                       # Number of memory references committed
system.switch_cpus_1.commit.loads            65107527                       # Number of loads committed
system.switch_cpus_1.commit.membars             65988                       # Number of memory barriers committed
system.switch_cpus_1.commit.branches         33714070                       # Number of branches committed
system.switch_cpus_1.commit.fp_insts           159557                       # Number of committed floating point instructions.
system.switch_cpus_1.commit.int_insts       196778837                       # Number of committed integer instructions.
system.switch_cpus_1.commit.function_calls      2336737                       # Number of function calls committed.
system.switch_cpus_1.commit.op_class_0::No_OpClass      4770592      2.33%      2.33% # Class of committed instruction
system.switch_cpus_1.commit.op_class_0::IntAlu    106615487     52.07%     54.40% # Class of committed instruction
system.switch_cpus_1.commit.op_class_0::IntMult         2354      0.00%     54.40% # Class of committed instruction
system.switch_cpus_1.commit.op_class_0::IntDiv            0      0.00%     54.40% # Class of committed instruction
system.switch_cpus_1.commit.op_class_0::FloatAdd        29677      0.01%     54.41% # Class of committed instruction
system.switch_cpus_1.commit.op_class_0::FloatCmp         2802      0.00%     54.41% # Class of committed instruction
system.switch_cpus_1.commit.op_class_0::FloatCvt         2757      0.00%     54.41% # Class of committed instruction
system.switch_cpus_1.commit.op_class_0::FloatMult          480      0.00%     54.41% # Class of committed instruction
system.switch_cpus_1.commit.op_class_0::FloatMultAcc            0      0.00%     54.41% # Class of committed instruction
system.switch_cpus_1.commit.op_class_0::FloatDiv          424      0.00%     54.41% # Class of committed instruction
system.switch_cpus_1.commit.op_class_0::FloatMisc            0      0.00%     54.41% # Class of committed instruction
system.switch_cpus_1.commit.op_class_0::FloatSqrt            0      0.00%     54.41% # Class of committed instruction
system.switch_cpus_1.commit.op_class_0::SimdAdd            0      0.00%     54.41% # Class of committed instruction
system.switch_cpus_1.commit.op_class_0::SimdAddAcc            0      0.00%     54.41% # Class of committed instruction
system.switch_cpus_1.commit.op_class_0::SimdAlu            0      0.00%     54.41% # Class of committed instruction
system.switch_cpus_1.commit.op_class_0::SimdCmp            0      0.00%     54.41% # Class of committed instruction
system.switch_cpus_1.commit.op_class_0::SimdCvt            0      0.00%     54.41% # Class of committed instruction
system.switch_cpus_1.commit.op_class_0::SimdMisc            0      0.00%     54.41% # Class of committed instruction
system.switch_cpus_1.commit.op_class_0::SimdMult            0      0.00%     54.41% # Class of committed instruction
system.switch_cpus_1.commit.op_class_0::SimdMultAcc            0      0.00%     54.41% # Class of committed instruction
system.switch_cpus_1.commit.op_class_0::SimdShift            0      0.00%     54.41% # Class of committed instruction
system.switch_cpus_1.commit.op_class_0::SimdShiftAcc            0      0.00%     54.41% # Class of committed instruction
system.switch_cpus_1.commit.op_class_0::SimdSqrt            0      0.00%     54.41% # Class of committed instruction
system.switch_cpus_1.commit.op_class_0::SimdFloatAdd            0      0.00%     54.41% # Class of committed instruction
system.switch_cpus_1.commit.op_class_0::SimdFloatAlu            0      0.00%     54.41% # Class of committed instruction
system.switch_cpus_1.commit.op_class_0::SimdFloatCmp            0      0.00%     54.41% # Class of committed instruction
system.switch_cpus_1.commit.op_class_0::SimdFloatCvt            0      0.00%     54.41% # Class of committed instruction
system.switch_cpus_1.commit.op_class_0::SimdFloatDiv            0      0.00%     54.41% # Class of committed instruction
system.switch_cpus_1.commit.op_class_0::SimdFloatMisc            0      0.00%     54.41% # Class of committed instruction
system.switch_cpus_1.commit.op_class_0::SimdFloatMult            0      0.00%     54.41% # Class of committed instruction
system.switch_cpus_1.commit.op_class_0::SimdFloatMultAcc            0      0.00%     54.41% # Class of committed instruction
system.switch_cpus_1.commit.op_class_0::SimdFloatSqrt            0      0.00%     54.41% # Class of committed instruction
system.switch_cpus_1.commit.op_class_0::MemRead     65122112     31.80%     86.22% # Class of committed instruction
system.switch_cpus_1.commit.op_class_0::MemWrite     28099943     13.72%     99.94% # Class of committed instruction
system.switch_cpus_1.commit.op_class_0::FloatMemRead        51403      0.03%     99.96% # Class of committed instruction
system.switch_cpus_1.commit.op_class_0::FloatMemWrite        72014      0.04%    100.00% # Class of committed instruction
system.switch_cpus_1.commit.op_class_0::IprAccess            0      0.00%    100.00% # Class of committed instruction
system.switch_cpus_1.commit.op_class_0::InstPrefetch            0      0.00%    100.00% # Class of committed instruction
system.switch_cpus_1.commit.op_class_0::total    204770045                       # Class of committed instruction
system.switch_cpus_1.commit.bw_lim_events     10677071                       # number cycles where commit BW limit reached
system.switch_cpus_1.rob.rob_reads          423160937                       # The number of ROB reads
system.switch_cpus_1.rob.rob_writes         555631743                       # The number of ROB writes
system.switch_cpus_1.timesIdled               1134926                       # Number of times that the entire CPU went into an idle state and unscheduled itself
system.switch_cpus_1.idleCycles               8826218                       # Total number of cycles that the CPU has spent unscheduled due to idling
system.switch_cpus_1.committedInsts         200000002                       # Number of Instructions Simulated
system.switch_cpus_1.committedOps           200000002                       # Number of Ops (including micro ops) Simulated
system.switch_cpus_1.cpi                     0.935087                       # CPI: Cycles Per Instruction
system.switch_cpus_1.cpi_total               0.935087                       # CPI: Total CPI of All Threads
system.switch_cpus_1.ipc                     1.069419                       # IPC: Instructions Per Cycle
system.switch_cpus_1.ipc_total               1.069419                       # IPC: Total IPC of All Threads
system.switch_cpus_1.int_regfile_reads      304296702                       # number of integer regfile reads
system.switch_cpus_1.int_regfile_writes     165699762                       # number of integer regfile writes
system.switch_cpus_1.fp_regfile_reads          179461                       # number of floating regfile reads
system.switch_cpus_1.fp_regfile_writes         106236                       # number of floating regfile writes
system.switch_cpus_1.misc_regfile_reads        151469                       # number of misc regfile reads
system.switch_cpus_1.misc_regfile_writes       132243                       # number of misc regfile writes
system.tol3bus.snoop_filter.tot_requests      1294297                       # Total number of requests made to the snoop filter.
system.tol3bus.snoop_filter.hit_single_requests       645119                       # Number of requests hitting in the snoop filter with a single holder of the requested data.
system.tol3bus.snoop_filter.hit_multi_requests            0                       # Number of requests hitting in the snoop filter with multiple (>1) holders of the requested data.
system.tol3bus.snoop_filter.tot_snoops            668                       # Total number of snoops made to the snoop filter.
system.tol3bus.snoop_filter.hit_single_snoops          668                       # Number of snoops hitting in the snoop filter with a single holder of the requested data.
system.tol3bus.snoop_filter.hit_multi_snoops            0                       # Number of snoops hitting in the snoop filter with multiple (>1) holders of the requested data.
system.tol3bus.pwrStateResidencyTicks::UNDEFINED 31073309693559                       # Cumulative time (in ticks) in various power states
system.tol3bus.trans_dist::ReadResp            578193                       # Transaction distribution
system.tol3bus.trans_dist::WritebackDirty       196712                       # Transaction distribution
system.tol3bus.trans_dist::CleanEvict          552539                       # Transaction distribution
system.tol3bus.trans_dist::UpgradeReq               2                       # Transaction distribution
system.tol3bus.trans_dist::UpgradeResp              2                       # Transaction distribution
system.tol3bus.trans_dist::ReadExReq            70985                       # Transaction distribution
system.tol3bus.trans_dist::ReadExResp           70985                       # Transaction distribution
system.tol3bus.trans_dist::ReadSharedReq       578193                       # Transaction distribution
system.tol3bus.pkt_count_system.cpu.l2.mem_side::system.l3.cpu_side      1943477                       # Packet count per connected master and slave (bytes)
system.tol3bus.pkt_size_system.cpu.l2.mem_side::system.l3.cpu_side     52718784                       # Cumulative packet size per connected master and slave (bytes)
system.tol3bus.snoops                          104134                       # Total snoops (count)
system.tol3bus.snoopTraffic                   1418176                       # Total snoop traffic (bytes)
system.tol3bus.snoop_fanout::samples           753314                       # Request fanout histogram
system.tol3bus.snoop_fanout::mean            0.000887                       # Request fanout histogram
system.tol3bus.snoop_fanout::stdev           0.029765                       # Request fanout histogram
system.tol3bus.snoop_fanout::underflows             0      0.00%      0.00% # Request fanout histogram
system.tol3bus.snoop_fanout::0                 752646     99.91%     99.91% # Request fanout histogram
system.tol3bus.snoop_fanout::1                    668      0.09%    100.00% # Request fanout histogram
system.tol3bus.snoop_fanout::overflows              0      0.00%    100.00% # Request fanout histogram
system.tol3bus.snoop_fanout::min_value              0                       # Request fanout histogram
system.tol3bus.snoop_fanout::max_value              1                       # Request fanout histogram
system.tol3bus.snoop_fanout::total             753314                       # Request fanout histogram
system.tol3bus.reqLayer0.occupancy          489127050                       # Layer occupancy (ticks)
system.tol3bus.reqLayer0.utilization              0.0                       # Layer utilization (%)
system.tol3bus.respLayer0.occupancy         432353214                       # Layer occupancy (ticks)
system.tol3bus.respLayer0.utilization             0.0                       # Layer utilization (%)

---------- End Simulation Statistics   ----------
