
---------- Begin Simulation Statistics ----------
sim_seconds                                 14.098324                       # Number of seconds simulated
sim_ticks                                14098323758049                       # Number of ticks simulated
final_tick                               176180506920549                       # Number of ticks from beginning of simulation (restored from checkpoints and never reset)
sim_freq                                 1000000000000                       # Frequency of simulated ticks
host_inst_rate                                  13574                       # Simulator instruction rate (inst/s)
host_op_rate                                    13574                       # Simulator op (including micro ops) rate (op/s)
host_tick_rate                              127579265                       # Simulator tick rate (ticks/s)
host_mem_usage                                2688860                       # Number of bytes of host memory used
host_seconds                                110506.39                       # Real time elapsed on the host
sim_insts                                  1500000006                       # Number of instructions simulated
sim_ops                                    1500000006                       # Number of ops (including micro ops) simulated
system.voltage_domain.voltage                       1                       # Voltage in Volts
system.clk_domain.clock                          1000                       # Clock period in ticks
system.mem_ctrls0.pwrStateResidencyTicks::UNDEFINED 176180506920549                       # Cumulative time (in ticks) in various power states
system.mem_ctrls0.bytes_read::cpu.inst            128                       # Number of bytes read from this memory
system.mem_ctrls0.bytes_read::switch_cpus.inst         1472                       # Number of bytes read from this memory
system.mem_ctrls0.bytes_read::switch_cpus.data   1948533632                       # Number of bytes read from this memory
system.mem_ctrls0.bytes_read::switch_cpus_1.inst          384                       # Number of bytes read from this memory
system.mem_ctrls0.bytes_read::switch_cpus_1.data    971848960                       # Number of bytes read from this memory
system.mem_ctrls0.bytes_read::total        2920384576                       # Number of bytes read from this memory
system.mem_ctrls0.bytes_inst_read::cpu.inst          128                       # Number of instructions bytes read from this memory
system.mem_ctrls0.bytes_inst_read::switch_cpus.inst         1472                       # Number of instructions bytes read from this memory
system.mem_ctrls0.bytes_inst_read::switch_cpus_1.inst          384                       # Number of instructions bytes read from this memory
system.mem_ctrls0.bytes_inst_read::total         1984                       # Number of instructions bytes read from this memory
system.mem_ctrls0.bytes_written::writebacks      8369344                       # Number of bytes written to this memory
system.mem_ctrls0.bytes_written::total        8369344                       # Number of bytes written to this memory
system.mem_ctrls0.num_reads::cpu.inst               2                       # Number of read requests responded to by this memory
system.mem_ctrls0.num_reads::switch_cpus.inst           23                       # Number of read requests responded to by this memory
system.mem_ctrls0.num_reads::switch_cpus.data     30445838                       # Number of read requests responded to by this memory
system.mem_ctrls0.num_reads::switch_cpus_1.inst            6                       # Number of read requests responded to by this memory
system.mem_ctrls0.num_reads::switch_cpus_1.data     15185140                       # Number of read requests responded to by this memory
system.mem_ctrls0.num_reads::total           45631009                       # Number of read requests responded to by this memory
system.mem_ctrls0.num_writes::writebacks       130771                       # Number of write requests responded to by this memory
system.mem_ctrls0.num_writes::total            130771                       # Number of write requests responded to by this memory
system.mem_ctrls0.bw_read::cpu.inst                 9                       # Total read bandwidth from this memory (bytes/s)
system.mem_ctrls0.bw_read::switch_cpus.inst          104                       # Total read bandwidth from this memory (bytes/s)
system.mem_ctrls0.bw_read::switch_cpus.data    138210305                       # Total read bandwidth from this memory (bytes/s)
system.mem_ctrls0.bw_read::switch_cpus_1.inst           27                       # Total read bandwidth from this memory (bytes/s)
system.mem_ctrls0.bw_read::switch_cpus_1.data     68933653                       # Total read bandwidth from this memory (bytes/s)
system.mem_ctrls0.bw_read::total            207144099                       # Total read bandwidth from this memory (bytes/s)
system.mem_ctrls0.bw_inst_read::cpu.inst            9                       # Instruction read bandwidth from this memory (bytes/s)
system.mem_ctrls0.bw_inst_read::switch_cpus.inst          104                       # Instruction read bandwidth from this memory (bytes/s)
system.mem_ctrls0.bw_inst_read::switch_cpus_1.inst           27                       # Instruction read bandwidth from this memory (bytes/s)
system.mem_ctrls0.bw_inst_read::total             141                       # Instruction read bandwidth from this memory (bytes/s)
system.mem_ctrls0.bw_write::writebacks         593641                       # Write bandwidth from this memory (bytes/s)
system.mem_ctrls0.bw_write::total              593641                       # Write bandwidth from this memory (bytes/s)
system.mem_ctrls0.bw_total::writebacks         593641                       # Total bandwidth to/from this memory (bytes/s)
system.mem_ctrls0.bw_total::cpu.inst                9                       # Total bandwidth to/from this memory (bytes/s)
system.mem_ctrls0.bw_total::switch_cpus.inst          104                       # Total bandwidth to/from this memory (bytes/s)
system.mem_ctrls0.bw_total::switch_cpus.data    138210305                       # Total bandwidth to/from this memory (bytes/s)
system.mem_ctrls0.bw_total::switch_cpus_1.inst           27                       # Total bandwidth to/from this memory (bytes/s)
system.mem_ctrls0.bw_total::switch_cpus_1.data     68933653                       # Total bandwidth to/from this memory (bytes/s)
system.mem_ctrls0.bw_total::total           207737740                       # Total bandwidth to/from this memory (bytes/s)
system.mem_ctrls0.readReqs                   45631009                       # Number of read requests accepted
system.mem_ctrls0.writeReqs                    130771                       # Number of write requests accepted
system.mem_ctrls0.readBursts                 45631009                       # Number of DRAM read bursts, including those serviced by the write queue
system.mem_ctrls0.writeBursts                  130771                       # Number of DRAM write bursts, including those merged in the write queue
system.mem_ctrls0.bytesReadDRAM            2919804864                       # Total number of bytes read from DRAM
system.mem_ctrls0.bytesReadWrQ                 579712                       # Total number of bytes read from write queue
system.mem_ctrls0.bytesWritten                8346048                       # Total number of bytes written to DRAM
system.mem_ctrls0.bytesReadSys             2920384576                       # Total read bytes from the system interface side
system.mem_ctrls0.bytesWrittenSys             8369344                       # Total written bytes from the system interface side
system.mem_ctrls0.servicedByWrQ                  9058                       # Number of DRAM read bursts serviced by the write queue
system.mem_ctrls0.mergedWrBursts                  346                       # Number of DRAM write bursts merged with an existing one
system.mem_ctrls0.neitherReadNorWriteReqs            0                       # Number of requests that are neither read nor write
system.mem_ctrls0.perBankRdBursts::0          2842251                       # Per bank write bursts
system.mem_ctrls0.perBankRdBursts::1          2851435                       # Per bank write bursts
system.mem_ctrls0.perBankRdBursts::2          2867784                       # Per bank write bursts
system.mem_ctrls0.perBankRdBursts::3          2866043                       # Per bank write bursts
system.mem_ctrls0.perBankRdBursts::4          2863261                       # Per bank write bursts
system.mem_ctrls0.perBankRdBursts::5          2853510                       # Per bank write bursts
system.mem_ctrls0.perBankRdBursts::6          2857048                       # Per bank write bursts
system.mem_ctrls0.perBankRdBursts::7          2842079                       # Per bank write bursts
system.mem_ctrls0.perBankRdBursts::8          2860017                       # Per bank write bursts
system.mem_ctrls0.perBankRdBursts::9          2849250                       # Per bank write bursts
system.mem_ctrls0.perBankRdBursts::10         2853622                       # Per bank write bursts
system.mem_ctrls0.perBankRdBursts::11         2862580                       # Per bank write bursts
system.mem_ctrls0.perBankRdBursts::12         2843455                       # Per bank write bursts
system.mem_ctrls0.perBankRdBursts::13         2842198                       # Per bank write bursts
system.mem_ctrls0.perBankRdBursts::14         2848132                       # Per bank write bursts
system.mem_ctrls0.perBankRdBursts::15         2819286                       # Per bank write bursts
system.mem_ctrls0.perBankWrBursts::0             7783                       # Per bank write bursts
system.mem_ctrls0.perBankWrBursts::1             7906                       # Per bank write bursts
system.mem_ctrls0.perBankWrBursts::2             7704                       # Per bank write bursts
system.mem_ctrls0.perBankWrBursts::3             9244                       # Per bank write bursts
system.mem_ctrls0.perBankWrBursts::4            10245                       # Per bank write bursts
system.mem_ctrls0.perBankWrBursts::5             7892                       # Per bank write bursts
system.mem_ctrls0.perBankWrBursts::6             7792                       # Per bank write bursts
system.mem_ctrls0.perBankWrBursts::7             8228                       # Per bank write bursts
system.mem_ctrls0.perBankWrBursts::8             8448                       # Per bank write bursts
system.mem_ctrls0.perBankWrBursts::9             7891                       # Per bank write bursts
system.mem_ctrls0.perBankWrBursts::10            8024                       # Per bank write bursts
system.mem_ctrls0.perBankWrBursts::11            7925                       # Per bank write bursts
system.mem_ctrls0.perBankWrBursts::12            7797                       # Per bank write bursts
system.mem_ctrls0.perBankWrBursts::13            7859                       # Per bank write bursts
system.mem_ctrls0.perBankWrBursts::14            7835                       # Per bank write bursts
system.mem_ctrls0.perBankWrBursts::15            7834                       # Per bank write bursts
system.mem_ctrls0.numRdRetry                        0                       # Number of times read queue was full causing retry
system.mem_ctrls0.numWrRetry                        0                       # Number of times write queue was full causing retry
system.mem_ctrls0.totGap                 14098323318246                       # Total gap between requests
system.mem_ctrls0.readPktSize::0                    0                       # Read request sizes (log2)
system.mem_ctrls0.readPktSize::1                    0                       # Read request sizes (log2)
system.mem_ctrls0.readPktSize::2                    0                       # Read request sizes (log2)
system.mem_ctrls0.readPktSize::3                    0                       # Read request sizes (log2)
system.mem_ctrls0.readPktSize::4                    0                       # Read request sizes (log2)
system.mem_ctrls0.readPktSize::5                    0                       # Read request sizes (log2)
system.mem_ctrls0.readPktSize::6             45631009                       # Read request sizes (log2)
system.mem_ctrls0.writePktSize::0                   0                       # Write request sizes (log2)
system.mem_ctrls0.writePktSize::1                   0                       # Write request sizes (log2)
system.mem_ctrls0.writePktSize::2                   0                       # Write request sizes (log2)
system.mem_ctrls0.writePktSize::3                   0                       # Write request sizes (log2)
system.mem_ctrls0.writePktSize::4                   0                       # Write request sizes (log2)
system.mem_ctrls0.writePktSize::5                   0                       # Write request sizes (log2)
system.mem_ctrls0.writePktSize::6              130771                       # Write request sizes (log2)
system.mem_ctrls0.rdQLenPdf::0               45583034                       # What read queue length does an incoming req see
system.mem_ctrls0.rdQLenPdf::1                  33976                       # What read queue length does an incoming req see
system.mem_ctrls0.rdQLenPdf::2                   4690                       # What read queue length does an incoming req see
system.mem_ctrls0.rdQLenPdf::3                    251                       # What read queue length does an incoming req see
system.mem_ctrls0.rdQLenPdf::4                      0                       # What read queue length does an incoming req see
system.mem_ctrls0.rdQLenPdf::5                      0                       # What read queue length does an incoming req see
system.mem_ctrls0.rdQLenPdf::6                      0                       # What read queue length does an incoming req see
system.mem_ctrls0.rdQLenPdf::7                      0                       # What read queue length does an incoming req see
system.mem_ctrls0.rdQLenPdf::8                      0                       # What read queue length does an incoming req see
system.mem_ctrls0.rdQLenPdf::9                      0                       # What read queue length does an incoming req see
system.mem_ctrls0.rdQLenPdf::10                     0                       # What read queue length does an incoming req see
system.mem_ctrls0.rdQLenPdf::11                     0                       # What read queue length does an incoming req see
system.mem_ctrls0.rdQLenPdf::12                     0                       # What read queue length does an incoming req see
system.mem_ctrls0.rdQLenPdf::13                     0                       # What read queue length does an incoming req see
system.mem_ctrls0.rdQLenPdf::14                     0                       # What read queue length does an incoming req see
system.mem_ctrls0.rdQLenPdf::15                     0                       # What read queue length does an incoming req see
system.mem_ctrls0.rdQLenPdf::16                     0                       # What read queue length does an incoming req see
system.mem_ctrls0.rdQLenPdf::17                     0                       # What read queue length does an incoming req see
system.mem_ctrls0.rdQLenPdf::18                     0                       # What read queue length does an incoming req see
system.mem_ctrls0.rdQLenPdf::19                     0                       # What read queue length does an incoming req see
system.mem_ctrls0.rdQLenPdf::20                     0                       # What read queue length does an incoming req see
system.mem_ctrls0.rdQLenPdf::21                     0                       # What read queue length does an incoming req see
system.mem_ctrls0.rdQLenPdf::22                     0                       # What read queue length does an incoming req see
system.mem_ctrls0.rdQLenPdf::23                     0                       # What read queue length does an incoming req see
system.mem_ctrls0.rdQLenPdf::24                     0                       # What read queue length does an incoming req see
system.mem_ctrls0.rdQLenPdf::25                     0                       # What read queue length does an incoming req see
system.mem_ctrls0.rdQLenPdf::26                     0                       # What read queue length does an incoming req see
system.mem_ctrls0.rdQLenPdf::27                     0                       # What read queue length does an incoming req see
system.mem_ctrls0.rdQLenPdf::28                     0                       # What read queue length does an incoming req see
system.mem_ctrls0.rdQLenPdf::29                     0                       # What read queue length does an incoming req see
system.mem_ctrls0.rdQLenPdf::30                     0                       # What read queue length does an incoming req see
system.mem_ctrls0.rdQLenPdf::31                     0                       # What read queue length does an incoming req see
system.mem_ctrls0.wrQLenPdf::0                      2                       # What write queue length does an incoming req see
system.mem_ctrls0.wrQLenPdf::1                      2                       # What write queue length does an incoming req see
system.mem_ctrls0.wrQLenPdf::2                      2                       # What write queue length does an incoming req see
system.mem_ctrls0.wrQLenPdf::3                      2                       # What write queue length does an incoming req see
system.mem_ctrls0.wrQLenPdf::4                      2                       # What write queue length does an incoming req see
system.mem_ctrls0.wrQLenPdf::5                      2                       # What write queue length does an incoming req see
system.mem_ctrls0.wrQLenPdf::6                      2                       # What write queue length does an incoming req see
system.mem_ctrls0.wrQLenPdf::7                      2                       # What write queue length does an incoming req see
system.mem_ctrls0.wrQLenPdf::8                      2                       # What write queue length does an incoming req see
system.mem_ctrls0.wrQLenPdf::9                      2                       # What write queue length does an incoming req see
system.mem_ctrls0.wrQLenPdf::10                     2                       # What write queue length does an incoming req see
system.mem_ctrls0.wrQLenPdf::11                     2                       # What write queue length does an incoming req see
system.mem_ctrls0.wrQLenPdf::12                     2                       # What write queue length does an incoming req see
system.mem_ctrls0.wrQLenPdf::13                     2                       # What write queue length does an incoming req see
system.mem_ctrls0.wrQLenPdf::14                     2                       # What write queue length does an incoming req see
system.mem_ctrls0.wrQLenPdf::15                  4138                       # What write queue length does an incoming req see
system.mem_ctrls0.wrQLenPdf::16                  4377                       # What write queue length does an incoming req see
system.mem_ctrls0.wrQLenPdf::17                  7474                       # What write queue length does an incoming req see
system.mem_ctrls0.wrQLenPdf::18                  7619                       # What write queue length does an incoming req see
system.mem_ctrls0.wrQLenPdf::19                  7629                       # What write queue length does an incoming req see
system.mem_ctrls0.wrQLenPdf::20                  7625                       # What write queue length does an incoming req see
system.mem_ctrls0.wrQLenPdf::21                  7626                       # What write queue length does an incoming req see
system.mem_ctrls0.wrQLenPdf::22                  7620                       # What write queue length does an incoming req see
system.mem_ctrls0.wrQLenPdf::23                  7622                       # What write queue length does an incoming req see
system.mem_ctrls0.wrQLenPdf::24                  7621                       # What write queue length does an incoming req see
system.mem_ctrls0.wrQLenPdf::25                  7617                       # What write queue length does an incoming req see
system.mem_ctrls0.wrQLenPdf::26                  7626                       # What write queue length does an incoming req see
system.mem_ctrls0.wrQLenPdf::27                  7633                       # What write queue length does an incoming req see
system.mem_ctrls0.wrQLenPdf::28                  7635                       # What write queue length does an incoming req see
system.mem_ctrls0.wrQLenPdf::29                  7636                       # What write queue length does an incoming req see
system.mem_ctrls0.wrQLenPdf::30                  7667                       # What write queue length does an incoming req see
system.mem_ctrls0.wrQLenPdf::31                  7614                       # What write queue length does an incoming req see
system.mem_ctrls0.wrQLenPdf::32                  7614                       # What write queue length does an incoming req see
system.mem_ctrls0.wrQLenPdf::33                     1                       # What write queue length does an incoming req see
system.mem_ctrls0.wrQLenPdf::34                     1                       # What write queue length does an incoming req see
system.mem_ctrls0.wrQLenPdf::35                     0                       # What write queue length does an incoming req see
system.mem_ctrls0.wrQLenPdf::36                     0                       # What write queue length does an incoming req see
system.mem_ctrls0.wrQLenPdf::37                     0                       # What write queue length does an incoming req see
system.mem_ctrls0.wrQLenPdf::38                     0                       # What write queue length does an incoming req see
system.mem_ctrls0.wrQLenPdf::39                     0                       # What write queue length does an incoming req see
system.mem_ctrls0.wrQLenPdf::40                     0                       # What write queue length does an incoming req see
system.mem_ctrls0.wrQLenPdf::41                     0                       # What write queue length does an incoming req see
system.mem_ctrls0.wrQLenPdf::42                     0                       # What write queue length does an incoming req see
system.mem_ctrls0.wrQLenPdf::43                     0                       # What write queue length does an incoming req see
system.mem_ctrls0.wrQLenPdf::44                     0                       # What write queue length does an incoming req see
system.mem_ctrls0.wrQLenPdf::45                     0                       # What write queue length does an incoming req see
system.mem_ctrls0.wrQLenPdf::46                     0                       # What write queue length does an incoming req see
system.mem_ctrls0.wrQLenPdf::47                     0                       # What write queue length does an incoming req see
system.mem_ctrls0.wrQLenPdf::48                     0                       # What write queue length does an incoming req see
system.mem_ctrls0.wrQLenPdf::49                     0                       # What write queue length does an incoming req see
system.mem_ctrls0.wrQLenPdf::50                     0                       # What write queue length does an incoming req see
system.mem_ctrls0.wrQLenPdf::51                     0                       # What write queue length does an incoming req see
system.mem_ctrls0.wrQLenPdf::52                     0                       # What write queue length does an incoming req see
system.mem_ctrls0.wrQLenPdf::53                     0                       # What write queue length does an incoming req see
system.mem_ctrls0.wrQLenPdf::54                     0                       # What write queue length does an incoming req see
system.mem_ctrls0.wrQLenPdf::55                     0                       # What write queue length does an incoming req see
system.mem_ctrls0.wrQLenPdf::56                     0                       # What write queue length does an incoming req see
system.mem_ctrls0.wrQLenPdf::57                     0                       # What write queue length does an incoming req see
system.mem_ctrls0.wrQLenPdf::58                     0                       # What write queue length does an incoming req see
system.mem_ctrls0.wrQLenPdf::59                     0                       # What write queue length does an incoming req see
system.mem_ctrls0.wrQLenPdf::60                     0                       # What write queue length does an incoming req see
system.mem_ctrls0.wrQLenPdf::61                     0                       # What write queue length does an incoming req see
system.mem_ctrls0.wrQLenPdf::62                     0                       # What write queue length does an incoming req see
system.mem_ctrls0.wrQLenPdf::63                     0                       # What write queue length does an incoming req see
system.mem_ctrls0.bytesPerActivate::samples     45589151                       # Bytes accessed per row activation
system.mem_ctrls0.bytesPerActivate::mean    64.229110                       # Bytes accessed per row activation
system.mem_ctrls0.bytesPerActivate::gmean    64.127671                       # Bytes accessed per row activation
system.mem_ctrls0.bytesPerActivate::stdev     6.256335                       # Bytes accessed per row activation
system.mem_ctrls0.bytesPerActivate::0-127     45483876     99.77%     99.77% # Bytes accessed per row activation
system.mem_ctrls0.bytesPerActivate::128-255        92327      0.20%     99.97% # Bytes accessed per row activation
system.mem_ctrls0.bytesPerActivate::256-383         8922      0.02%     99.99% # Bytes accessed per row activation
system.mem_ctrls0.bytesPerActivate::384-511         2514      0.01%    100.00% # Bytes accessed per row activation
system.mem_ctrls0.bytesPerActivate::512-639          861      0.00%    100.00% # Bytes accessed per row activation
system.mem_ctrls0.bytesPerActivate::640-767          350      0.00%    100.00% # Bytes accessed per row activation
system.mem_ctrls0.bytesPerActivate::768-895          161      0.00%    100.00% # Bytes accessed per row activation
system.mem_ctrls0.bytesPerActivate::896-1023           69      0.00%    100.00% # Bytes accessed per row activation
system.mem_ctrls0.bytesPerActivate::1024-1151           71      0.00%    100.00% # Bytes accessed per row activation
system.mem_ctrls0.bytesPerActivate::total     45589151                       # Bytes accessed per row activation
system.mem_ctrls0.rdPerTurnAround::samples         7611                       # Reads before turning the bus around for writes
system.mem_ctrls0.rdPerTurnAround::mean   5971.186835                       # Reads before turning the bus around for writes
system.mem_ctrls0.rdPerTurnAround::gmean   148.407347                       # Reads before turning the bus around for writes
system.mem_ctrls0.rdPerTurnAround::stdev 76068.868199                       # Reads before turning the bus around for writes
system.mem_ctrls0.rdPerTurnAround::0-131071         7549     99.19%     99.19% # Reads before turning the bus around for writes
system.mem_ctrls0.rdPerTurnAround::131072-262143           32      0.42%     99.61% # Reads before turning the bus around for writes
system.mem_ctrls0.rdPerTurnAround::262144-393215           12      0.16%     99.76% # Reads before turning the bus around for writes
system.mem_ctrls0.rdPerTurnAround::393216-524287            4      0.05%     99.82% # Reads before turning the bus around for writes
system.mem_ctrls0.rdPerTurnAround::524288-655359            1      0.01%     99.83% # Reads before turning the bus around for writes
system.mem_ctrls0.rdPerTurnAround::655360-786431            3      0.04%     99.87% # Reads before turning the bus around for writes
system.mem_ctrls0.rdPerTurnAround::917504-1.04858e+06            1      0.01%     99.88% # Reads before turning the bus around for writes
system.mem_ctrls0.rdPerTurnAround::1.04858e+06-1.17965e+06            2      0.03%     99.91% # Reads before turning the bus around for writes
system.mem_ctrls0.rdPerTurnAround::1.31072e+06-1.44179e+06            3      0.04%     99.95% # Reads before turning the bus around for writes
system.mem_ctrls0.rdPerTurnAround::1.70394e+06-1.83501e+06            1      0.01%     99.96% # Reads before turning the bus around for writes
system.mem_ctrls0.rdPerTurnAround::1.96608e+06-2.09715e+06            1      0.01%     99.97% # Reads before turning the bus around for writes
system.mem_ctrls0.rdPerTurnAround::3.01466e+06-3.14573e+06            1      0.01%     99.99% # Reads before turning the bus around for writes
system.mem_ctrls0.rdPerTurnAround::3.53894e+06-3.67002e+06            1      0.01%    100.00% # Reads before turning the bus around for writes
system.mem_ctrls0.rdPerTurnAround::total         7611                       # Reads before turning the bus around for writes
system.mem_ctrls0.wrPerTurnAround::samples         7611                       # Writes before turning the bus around for reads
system.mem_ctrls0.wrPerTurnAround::mean     17.134017                       # Writes before turning the bus around for reads
system.mem_ctrls0.wrPerTurnAround::gmean    17.104031                       # Writes before turning the bus around for reads
system.mem_ctrls0.wrPerTurnAround::stdev     1.013529                       # Writes before turning the bus around for reads
system.mem_ctrls0.wrPerTurnAround::16            3256     42.78%     42.78% # Writes before turning the bus around for reads
system.mem_ctrls0.wrPerTurnAround::17             213      2.80%     45.58% # Writes before turning the bus around for reads
system.mem_ctrls0.wrPerTurnAround::18            4029     52.94%     98.52% # Writes before turning the bus around for reads
system.mem_ctrls0.wrPerTurnAround::19             103      1.35%     99.87% # Writes before turning the bus around for reads
system.mem_ctrls0.wrPerTurnAround::20               8      0.11%     99.97% # Writes before turning the bus around for reads
system.mem_ctrls0.wrPerTurnAround::21               1      0.01%     99.99% # Writes before turning the bus around for reads
system.mem_ctrls0.wrPerTurnAround::30               1      0.01%    100.00% # Writes before turning the bus around for reads
system.mem_ctrls0.wrPerTurnAround::total         7611                       # Writes before turning the bus around for reads
system.mem_ctrls0.totQLat                1385194064004                       # Total ticks spent queuing
system.mem_ctrls0.totMemAccLat           2240605645254                       # Total ticks spent from burst creation until serviced by the DRAM
system.mem_ctrls0.totBusLat              228109755000                       # Total ticks spent in databus transfers
system.mem_ctrls0.avgQLat                    30362.45                       # Average queueing delay per DRAM burst
system.mem_ctrls0.avgBusLat                   5000.00                       # Average bus latency per DRAM burst
system.mem_ctrls0.avgMemAccLat               49112.45                       # Average memory access latency per DRAM burst
system.mem_ctrls0.avgRdBW                      207.10                       # Average DRAM read bandwidth in MiByte/s
system.mem_ctrls0.avgWrBW                        0.59                       # Average achieved write bandwidth in MiByte/s
system.mem_ctrls0.avgRdBWSys                   207.14                       # Average system read bandwidth in MiByte/s
system.mem_ctrls0.avgWrBWSys                     0.59                       # Average system write bandwidth in MiByte/s
system.mem_ctrls0.peakBW                     12800.00                       # Theoretical peak bandwidth in MiByte/s
system.mem_ctrls0.busUtil                        1.62                       # Data bus utilization in percentage
system.mem_ctrls0.busUtilRead                    1.62                       # Data bus utilization in percentage for reads
system.mem_ctrls0.busUtilWrite                   0.00                       # Data bus utilization in percentage for writes
system.mem_ctrls0.avgRdQLen                      1.00                       # Average read queue length when enqueuing
system.mem_ctrls0.avgWrQLen                     24.62                       # Average write queue length when enqueuing
system.mem_ctrls0.readRowHits                  141036                       # Number of row buffer hits during reads
system.mem_ctrls0.writeRowHits                  22166                       # Number of row buffer hits during writes
system.mem_ctrls0.readRowHitRate                 0.31                       # Row buffer hit rate for reads
system.mem_ctrls0.writeRowHitRate               17.00                       # Row buffer hit rate for writes
system.mem_ctrls0.avgGap                    308080.75                       # Average gap between requests
system.mem_ctrls0.pageHitRate                    0.36                       # Row buffer hit rate, read and write combined
system.mem_ctrls0_0.actEnergy            162988892640                       # Energy for activate commands per rank (pJ)
system.mem_ctrls0_0.preEnergy             86630647125                       # Energy for precharge commands per rank (pJ)
system.mem_ctrls0_0.readEnergy           163101954540                       # Energy for read commands per rank (pJ)
system.mem_ctrls0_0.writeEnergy             348664680                       # Energy for write commands per rank (pJ)
system.mem_ctrls0_0.refreshEnergy        1112939096880.000244                       # Energy for refresh commands per rank (pJ)
system.mem_ctrls0_0.actBackEnergy        661867438650                       # Energy for active background per rank (pJ)
system.mem_ctrls0_0.preBackEnergy         25092005760                       # Energy for precharge background per rank (pJ)
system.mem_ctrls0_0.actPowerDownEnergy   5476284231720                       # Energy for active power-down per rank (pJ)
system.mem_ctrls0_0.prePowerDownEnergy   219628489920                       # Energy for precharge power-down per rank (pJ)
system.mem_ctrls0_0.selfRefreshEnergy        82960050                       # Energy for self refresh per rank (pJ)
system.mem_ctrls0_0.totalEnergy          7908964975695                       # Total energy per rank (pJ)
system.mem_ctrls0_0.averagePower           560.986193                       # Core power per rank (mW)
system.mem_ctrls0_0.totalIdleTime        12582074823301                       # Total Idle time Per DRAM Rank
system.mem_ctrls0_0.memoryStateTime::IDLE  10613635761                       # Time in different power states
system.mem_ctrls0_0.memoryStateTime::REF 470786942000                       # Time in different power states
system.mem_ctrls0_0.memoryStateTime::SREF    170558523                       # Time in different power states
system.mem_ctrls0_0.memoryStateTime::PRE_PDN 571845054418                       # Time in different power states
system.mem_ctrls0_0.memoryStateTime::ACT 1034847241642                       # Time in different power states
system.mem_ctrls0_0.memoryStateTime::ACT_PDN 12010060325705                       # Time in different power states
system.mem_ctrls0_1.actEnergy            162517681200                       # Energy for activate commands per rank (pJ)
system.mem_ctrls0_1.preEnergy             86380180920                       # Energy for precharge commands per rank (pJ)
system.mem_ctrls0_1.readEnergy           162638775600                       # Energy for read commands per rank (pJ)
system.mem_ctrls0_1.writeEnergy             332059860                       # Energy for write commands per rank (pJ)
system.mem_ctrls0_1.refreshEnergy        1112939711520.000244                       # Energy for refresh commands per rank (pJ)
system.mem_ctrls0_1.actBackEnergy        660170286450                       # Energy for active background per rank (pJ)
system.mem_ctrls0_1.preBackEnergy         25179610560                       # Energy for precharge background per rank (pJ)
system.mem_ctrls0_1.actPowerDownEnergy   5478223152840                       # Energy for active power-down per rank (pJ)
system.mem_ctrls0_1.prePowerDownEnergy   219331180320                       # Energy for precharge power-down per rank (pJ)
system.mem_ctrls0_1.selfRefreshEnergy        88900095                       # Energy for self refresh per rank (pJ)
system.mem_ctrls0_1.totalEnergy          7907802046005                       # Total energy per rank (pJ)
system.mem_ctrls0_1.averagePower           560.903706                       # Core power per rank (mW)
system.mem_ctrls0_1.totalIdleTime        12585520844045                       # Total Idle time Per DRAM Rank
system.mem_ctrls0_1.memoryStateTime::IDLE  10554642644                       # Time in different power states
system.mem_ctrls0_1.memoryStateTime::REF 470787214000                       # Time in different power states
system.mem_ctrls0_1.memoryStateTime::SREF    186659438                       # Time in different power states
system.mem_ctrls0_1.memoryStateTime::PRE_PDN 571260046649                       # Time in different power states
system.mem_ctrls0_1.memoryStateTime::ACT 1031460862191                       # Time in different power states
system.mem_ctrls0_1.memoryStateTime::ACT_PDN 12014074333127                       # Time in different power states
system.mem_ctrls1.pwrStateResidencyTicks::UNDEFINED 176180506920549                       # Cumulative time (in ticks) in various power states
system.mem_ctrls1.bytes_read::cpu.inst            128                       # Number of bytes read from this memory
system.mem_ctrls1.bytes_read::cpu.data             64                       # Number of bytes read from this memory
system.mem_ctrls1.bytes_read::switch_cpus.inst         1088                       # Number of bytes read from this memory
system.mem_ctrls1.bytes_read::switch_cpus.data   1949412352                       # Number of bytes read from this memory
system.mem_ctrls1.bytes_read::switch_cpus_1.inst          704                       # Number of bytes read from this memory
system.mem_ctrls1.bytes_read::switch_cpus_1.data    972426176                       # Number of bytes read from this memory
system.mem_ctrls1.bytes_read::total        2921840512                       # Number of bytes read from this memory
system.mem_ctrls1.bytes_inst_read::cpu.inst          128                       # Number of instructions bytes read from this memory
system.mem_ctrls1.bytes_inst_read::switch_cpus.inst         1088                       # Number of instructions bytes read from this memory
system.mem_ctrls1.bytes_inst_read::switch_cpus_1.inst          704                       # Number of instructions bytes read from this memory
system.mem_ctrls1.bytes_inst_read::total         1920                       # Number of instructions bytes read from this memory
system.mem_ctrls1.bytes_written::writebacks      8408512                       # Number of bytes written to this memory
system.mem_ctrls1.bytes_written::total        8408512                       # Number of bytes written to this memory
system.mem_ctrls1.num_reads::cpu.inst               2                       # Number of read requests responded to by this memory
system.mem_ctrls1.num_reads::cpu.data               1                       # Number of read requests responded to by this memory
system.mem_ctrls1.num_reads::switch_cpus.inst           17                       # Number of read requests responded to by this memory
system.mem_ctrls1.num_reads::switch_cpus.data     30459568                       # Number of read requests responded to by this memory
system.mem_ctrls1.num_reads::switch_cpus_1.inst           11                       # Number of read requests responded to by this memory
system.mem_ctrls1.num_reads::switch_cpus_1.data     15194159                       # Number of read requests responded to by this memory
system.mem_ctrls1.num_reads::total           45653758                       # Number of read requests responded to by this memory
system.mem_ctrls1.num_writes::writebacks       131383                       # Number of write requests responded to by this memory
system.mem_ctrls1.num_writes::total            131383                       # Number of write requests responded to by this memory
system.mem_ctrls1.bw_read::cpu.inst                 9                       # Total read bandwidth from this memory (bytes/s)
system.mem_ctrls1.bw_read::cpu.data                 5                       # Total read bandwidth from this memory (bytes/s)
system.mem_ctrls1.bw_read::switch_cpus.inst           77                       # Total read bandwidth from this memory (bytes/s)
system.mem_ctrls1.bw_read::switch_cpus.data    138272633                       # Total read bandwidth from this memory (bytes/s)
system.mem_ctrls1.bw_read::switch_cpus_1.inst           50                       # Total read bandwidth from this memory (bytes/s)
system.mem_ctrls1.bw_read::switch_cpus_1.data     68974595                       # Total read bandwidth from this memory (bytes/s)
system.mem_ctrls1.bw_read::total            207247369                       # Total read bandwidth from this memory (bytes/s)
system.mem_ctrls1.bw_inst_read::cpu.inst            9                       # Instruction read bandwidth from this memory (bytes/s)
system.mem_ctrls1.bw_inst_read::switch_cpus.inst           77                       # Instruction read bandwidth from this memory (bytes/s)
system.mem_ctrls1.bw_inst_read::switch_cpus_1.inst           50                       # Instruction read bandwidth from this memory (bytes/s)
system.mem_ctrls1.bw_inst_read::total             136                       # Instruction read bandwidth from this memory (bytes/s)
system.mem_ctrls1.bw_write::writebacks         596419                       # Write bandwidth from this memory (bytes/s)
system.mem_ctrls1.bw_write::total              596419                       # Write bandwidth from this memory (bytes/s)
system.mem_ctrls1.bw_total::writebacks         596419                       # Total bandwidth to/from this memory (bytes/s)
system.mem_ctrls1.bw_total::cpu.inst                9                       # Total bandwidth to/from this memory (bytes/s)
system.mem_ctrls1.bw_total::cpu.data                5                       # Total bandwidth to/from this memory (bytes/s)
system.mem_ctrls1.bw_total::switch_cpus.inst           77                       # Total bandwidth to/from this memory (bytes/s)
system.mem_ctrls1.bw_total::switch_cpus.data    138272633                       # Total bandwidth to/from this memory (bytes/s)
system.mem_ctrls1.bw_total::switch_cpus_1.inst           50                       # Total bandwidth to/from this memory (bytes/s)
system.mem_ctrls1.bw_total::switch_cpus_1.data     68974595                       # Total bandwidth to/from this memory (bytes/s)
system.mem_ctrls1.bw_total::total           207843789                       # Total bandwidth to/from this memory (bytes/s)
system.mem_ctrls1.readReqs                   45653758                       # Number of read requests accepted
system.mem_ctrls1.writeReqs                    131383                       # Number of write requests accepted
system.mem_ctrls1.readBursts                 45653758                       # Number of DRAM read bursts, including those serviced by the write queue
system.mem_ctrls1.writeBursts                  131383                       # Number of DRAM write bursts, including those merged in the write queue
system.mem_ctrls1.bytesReadDRAM            2921268736                       # Total number of bytes read from DRAM
system.mem_ctrls1.bytesReadWrQ                 571776                       # Total number of bytes read from write queue
system.mem_ctrls1.bytesWritten                8387328                       # Total number of bytes written to DRAM
system.mem_ctrls1.bytesReadSys             2921840512                       # Total read bytes from the system interface side
system.mem_ctrls1.bytesWrittenSys             8408512                       # Total written bytes from the system interface side
system.mem_ctrls1.servicedByWrQ                  8934                       # Number of DRAM read bursts serviced by the write queue
system.mem_ctrls1.mergedWrBursts                  311                       # Number of DRAM write bursts merged with an existing one
system.mem_ctrls1.neitherReadNorWriteReqs            0                       # Number of requests that are neither read nor write
system.mem_ctrls1.perBankRdBursts::0          2848443                       # Per bank write bursts
system.mem_ctrls1.perBankRdBursts::1          2849837                       # Per bank write bursts
system.mem_ctrls1.perBankRdBursts::2          2874003                       # Per bank write bursts
system.mem_ctrls1.perBankRdBursts::3          2863771                       # Per bank write bursts
system.mem_ctrls1.perBankRdBursts::4          2869869                       # Per bank write bursts
system.mem_ctrls1.perBankRdBursts::5          2859689                       # Per bank write bursts
system.mem_ctrls1.perBankRdBursts::6          2845155                       # Per bank write bursts
system.mem_ctrls1.perBankRdBursts::7          2856550                       # Per bank write bursts
system.mem_ctrls1.perBankRdBursts::8          2872679                       # Per bank write bursts
system.mem_ctrls1.perBankRdBursts::9          2839395                       # Per bank write bursts
system.mem_ctrls1.perBankRdBursts::10         2850268                       # Per bank write bursts
system.mem_ctrls1.perBankRdBursts::11         2856894                       # Per bank write bursts
system.mem_ctrls1.perBankRdBursts::12         2843849                       # Per bank write bursts
system.mem_ctrls1.perBankRdBursts::13         2844736                       # Per bank write bursts
system.mem_ctrls1.perBankRdBursts::14         2839052                       # Per bank write bursts
system.mem_ctrls1.perBankRdBursts::15         2830634                       # Per bank write bursts
system.mem_ctrls1.perBankWrBursts::0             7868                       # Per bank write bursts
system.mem_ctrls1.perBankWrBursts::1             7841                       # Per bank write bursts
system.mem_ctrls1.perBankWrBursts::2             7746                       # Per bank write bursts
system.mem_ctrls1.perBankWrBursts::3             9555                       # Per bank write bursts
system.mem_ctrls1.perBankWrBursts::4             9924                       # Per bank write bursts
system.mem_ctrls1.perBankWrBursts::5             7961                       # Per bank write bursts
system.mem_ctrls1.perBankWrBursts::6             7981                       # Per bank write bursts
system.mem_ctrls1.perBankWrBursts::7             8049                       # Per bank write bursts
system.mem_ctrls1.perBankWrBursts::8             8281                       # Per bank write bursts
system.mem_ctrls1.perBankWrBursts::9             8008                       # Per bank write bursts
system.mem_ctrls1.perBankWrBursts::10            8021                       # Per bank write bursts
system.mem_ctrls1.perBankWrBursts::11            8108                       # Per bank write bursts
system.mem_ctrls1.perBankWrBursts::12            7958                       # Per bank write bursts
system.mem_ctrls1.perBankWrBursts::13            8051                       # Per bank write bursts
system.mem_ctrls1.perBankWrBursts::14            7804                       # Per bank write bursts
system.mem_ctrls1.perBankWrBursts::15            7896                       # Per bank write bursts
system.mem_ctrls1.numRdRetry                        0                       # Number of times read queue was full causing retry
system.mem_ctrls1.numWrRetry                        0                       # Number of times write queue was full causing retry
system.mem_ctrls1.totGap                 14098323644253                       # Total gap between requests
system.mem_ctrls1.readPktSize::0                    0                       # Read request sizes (log2)
system.mem_ctrls1.readPktSize::1                    0                       # Read request sizes (log2)
system.mem_ctrls1.readPktSize::2                    0                       # Read request sizes (log2)
system.mem_ctrls1.readPktSize::3                    0                       # Read request sizes (log2)
system.mem_ctrls1.readPktSize::4                    0                       # Read request sizes (log2)
system.mem_ctrls1.readPktSize::5                    0                       # Read request sizes (log2)
system.mem_ctrls1.readPktSize::6             45653758                       # Read request sizes (log2)
system.mem_ctrls1.writePktSize::0                   0                       # Write request sizes (log2)
system.mem_ctrls1.writePktSize::1                   0                       # Write request sizes (log2)
system.mem_ctrls1.writePktSize::2                   0                       # Write request sizes (log2)
system.mem_ctrls1.writePktSize::3                   0                       # Write request sizes (log2)
system.mem_ctrls1.writePktSize::4                   0                       # Write request sizes (log2)
system.mem_ctrls1.writePktSize::5                   0                       # Write request sizes (log2)
system.mem_ctrls1.writePktSize::6              131383                       # Write request sizes (log2)
system.mem_ctrls1.rdQLenPdf::0               45605964                       # What read queue length does an incoming req see
system.mem_ctrls1.rdQLenPdf::1                  33985                       # What read queue length does an incoming req see
system.mem_ctrls1.rdQLenPdf::2                   4639                       # What read queue length does an incoming req see
system.mem_ctrls1.rdQLenPdf::3                    236                       # What read queue length does an incoming req see
system.mem_ctrls1.rdQLenPdf::4                      0                       # What read queue length does an incoming req see
system.mem_ctrls1.rdQLenPdf::5                      0                       # What read queue length does an incoming req see
system.mem_ctrls1.rdQLenPdf::6                      0                       # What read queue length does an incoming req see
system.mem_ctrls1.rdQLenPdf::7                      0                       # What read queue length does an incoming req see
system.mem_ctrls1.rdQLenPdf::8                      0                       # What read queue length does an incoming req see
system.mem_ctrls1.rdQLenPdf::9                      0                       # What read queue length does an incoming req see
system.mem_ctrls1.rdQLenPdf::10                     0                       # What read queue length does an incoming req see
system.mem_ctrls1.rdQLenPdf::11                     0                       # What read queue length does an incoming req see
system.mem_ctrls1.rdQLenPdf::12                     0                       # What read queue length does an incoming req see
system.mem_ctrls1.rdQLenPdf::13                     0                       # What read queue length does an incoming req see
system.mem_ctrls1.rdQLenPdf::14                     0                       # What read queue length does an incoming req see
system.mem_ctrls1.rdQLenPdf::15                     0                       # What read queue length does an incoming req see
system.mem_ctrls1.rdQLenPdf::16                     0                       # What read queue length does an incoming req see
system.mem_ctrls1.rdQLenPdf::17                     0                       # What read queue length does an incoming req see
system.mem_ctrls1.rdQLenPdf::18                     0                       # What read queue length does an incoming req see
system.mem_ctrls1.rdQLenPdf::19                     0                       # What read queue length does an incoming req see
system.mem_ctrls1.rdQLenPdf::20                     0                       # What read queue length does an incoming req see
system.mem_ctrls1.rdQLenPdf::21                     0                       # What read queue length does an incoming req see
system.mem_ctrls1.rdQLenPdf::22                     0                       # What read queue length does an incoming req see
system.mem_ctrls1.rdQLenPdf::23                     0                       # What read queue length does an incoming req see
system.mem_ctrls1.rdQLenPdf::24                     0                       # What read queue length does an incoming req see
system.mem_ctrls1.rdQLenPdf::25                     0                       # What read queue length does an incoming req see
system.mem_ctrls1.rdQLenPdf::26                     0                       # What read queue length does an incoming req see
system.mem_ctrls1.rdQLenPdf::27                     0                       # What read queue length does an incoming req see
system.mem_ctrls1.rdQLenPdf::28                     0                       # What read queue length does an incoming req see
system.mem_ctrls1.rdQLenPdf::29                     0                       # What read queue length does an incoming req see
system.mem_ctrls1.rdQLenPdf::30                     0                       # What read queue length does an incoming req see
system.mem_ctrls1.rdQLenPdf::31                     0                       # What read queue length does an incoming req see
system.mem_ctrls1.wrQLenPdf::0                      2                       # What write queue length does an incoming req see
system.mem_ctrls1.wrQLenPdf::1                      2                       # What write queue length does an incoming req see
system.mem_ctrls1.wrQLenPdf::2                      2                       # What write queue length does an incoming req see
system.mem_ctrls1.wrQLenPdf::3                      2                       # What write queue length does an incoming req see
system.mem_ctrls1.wrQLenPdf::4                      2                       # What write queue length does an incoming req see
system.mem_ctrls1.wrQLenPdf::5                      2                       # What write queue length does an incoming req see
system.mem_ctrls1.wrQLenPdf::6                      2                       # What write queue length does an incoming req see
system.mem_ctrls1.wrQLenPdf::7                      2                       # What write queue length does an incoming req see
system.mem_ctrls1.wrQLenPdf::8                      2                       # What write queue length does an incoming req see
system.mem_ctrls1.wrQLenPdf::9                      2                       # What write queue length does an incoming req see
system.mem_ctrls1.wrQLenPdf::10                     2                       # What write queue length does an incoming req see
system.mem_ctrls1.wrQLenPdf::11                     2                       # What write queue length does an incoming req see
system.mem_ctrls1.wrQLenPdf::12                     2                       # What write queue length does an incoming req see
system.mem_ctrls1.wrQLenPdf::13                     2                       # What write queue length does an incoming req see
system.mem_ctrls1.wrQLenPdf::14                     2                       # What write queue length does an incoming req see
system.mem_ctrls1.wrQLenPdf::15                  4080                       # What write queue length does an incoming req see
system.mem_ctrls1.wrQLenPdf::16                  4358                       # What write queue length does an incoming req see
system.mem_ctrls1.wrQLenPdf::17                  7528                       # What write queue length does an incoming req see
system.mem_ctrls1.wrQLenPdf::18                  7667                       # What write queue length does an incoming req see
system.mem_ctrls1.wrQLenPdf::19                  7672                       # What write queue length does an incoming req see
system.mem_ctrls1.wrQLenPdf::20                  7667                       # What write queue length does an incoming req see
system.mem_ctrls1.wrQLenPdf::21                  7674                       # What write queue length does an incoming req see
system.mem_ctrls1.wrQLenPdf::22                  7666                       # What write queue length does an incoming req see
system.mem_ctrls1.wrQLenPdf::23                  7670                       # What write queue length does an incoming req see
system.mem_ctrls1.wrQLenPdf::24                  7668                       # What write queue length does an incoming req see
system.mem_ctrls1.wrQLenPdf::25                  7665                       # What write queue length does an incoming req see
system.mem_ctrls1.wrQLenPdf::26                  7670                       # What write queue length does an incoming req see
system.mem_ctrls1.wrQLenPdf::27                  7667                       # What write queue length does an incoming req see
system.mem_ctrls1.wrQLenPdf::28                  7673                       # What write queue length does an incoming req see
system.mem_ctrls1.wrQLenPdf::29                  7685                       # What write queue length does an incoming req see
system.mem_ctrls1.wrQLenPdf::30                  7705                       # What write queue length does an incoming req see
system.mem_ctrls1.wrQLenPdf::31                  7663                       # What write queue length does an incoming req see
system.mem_ctrls1.wrQLenPdf::32                  7662                       # What write queue length does an incoming req see
system.mem_ctrls1.wrQLenPdf::33                     2                       # What write queue length does an incoming req see
system.mem_ctrls1.wrQLenPdf::34                     0                       # What write queue length does an incoming req see
system.mem_ctrls1.wrQLenPdf::35                     0                       # What write queue length does an incoming req see
system.mem_ctrls1.wrQLenPdf::36                     0                       # What write queue length does an incoming req see
system.mem_ctrls1.wrQLenPdf::37                     0                       # What write queue length does an incoming req see
system.mem_ctrls1.wrQLenPdf::38                     0                       # What write queue length does an incoming req see
system.mem_ctrls1.wrQLenPdf::39                     0                       # What write queue length does an incoming req see
system.mem_ctrls1.wrQLenPdf::40                     0                       # What write queue length does an incoming req see
system.mem_ctrls1.wrQLenPdf::41                     0                       # What write queue length does an incoming req see
system.mem_ctrls1.wrQLenPdf::42                     0                       # What write queue length does an incoming req see
system.mem_ctrls1.wrQLenPdf::43                     0                       # What write queue length does an incoming req see
system.mem_ctrls1.wrQLenPdf::44                     0                       # What write queue length does an incoming req see
system.mem_ctrls1.wrQLenPdf::45                     0                       # What write queue length does an incoming req see
system.mem_ctrls1.wrQLenPdf::46                     0                       # What write queue length does an incoming req see
system.mem_ctrls1.wrQLenPdf::47                     0                       # What write queue length does an incoming req see
system.mem_ctrls1.wrQLenPdf::48                     0                       # What write queue length does an incoming req see
system.mem_ctrls1.wrQLenPdf::49                     0                       # What write queue length does an incoming req see
system.mem_ctrls1.wrQLenPdf::50                     0                       # What write queue length does an incoming req see
system.mem_ctrls1.wrQLenPdf::51                     0                       # What write queue length does an incoming req see
system.mem_ctrls1.wrQLenPdf::52                     0                       # What write queue length does an incoming req see
system.mem_ctrls1.wrQLenPdf::53                     0                       # What write queue length does an incoming req see
system.mem_ctrls1.wrQLenPdf::54                     0                       # What write queue length does an incoming req see
system.mem_ctrls1.wrQLenPdf::55                     0                       # What write queue length does an incoming req see
system.mem_ctrls1.wrQLenPdf::56                     0                       # What write queue length does an incoming req see
system.mem_ctrls1.wrQLenPdf::57                     0                       # What write queue length does an incoming req see
system.mem_ctrls1.wrQLenPdf::58                     0                       # What write queue length does an incoming req see
system.mem_ctrls1.wrQLenPdf::59                     0                       # What write queue length does an incoming req see
system.mem_ctrls1.wrQLenPdf::60                     0                       # What write queue length does an incoming req see
system.mem_ctrls1.wrQLenPdf::61                     0                       # What write queue length does an incoming req see
system.mem_ctrls1.wrQLenPdf::62                     0                       # What write queue length does an incoming req see
system.mem_ctrls1.wrQLenPdf::63                     0                       # What write queue length does an incoming req see
system.mem_ctrls1.bytesPerActivate::samples     45611995                       # Bytes accessed per row activation
system.mem_ctrls1.bytesPerActivate::mean    64.229931                       # Bytes accessed per row activation
system.mem_ctrls1.bytesPerActivate::gmean    64.128007                       # Bytes accessed per row activation
system.mem_ctrls1.bytesPerActivate::stdev     6.274911                       # Bytes accessed per row activation
system.mem_ctrls1.bytesPerActivate::0-127     45506435     99.77%     99.77% # Bytes accessed per row activation
system.mem_ctrls1.bytesPerActivate::128-255        92598      0.20%     99.97% # Bytes accessed per row activation
system.mem_ctrls1.bytesPerActivate::256-383         8857      0.02%     99.99% # Bytes accessed per row activation
system.mem_ctrls1.bytesPerActivate::384-511         2473      0.01%    100.00% # Bytes accessed per row activation
system.mem_ctrls1.bytesPerActivate::512-639          972      0.00%    100.00% # Bytes accessed per row activation
system.mem_ctrls1.bytesPerActivate::640-767          399      0.00%    100.00% # Bytes accessed per row activation
system.mem_ctrls1.bytesPerActivate::768-895          136      0.00%    100.00% # Bytes accessed per row activation
system.mem_ctrls1.bytesPerActivate::896-1023           71      0.00%    100.00% # Bytes accessed per row activation
system.mem_ctrls1.bytesPerActivate::1024-1151           54      0.00%    100.00% # Bytes accessed per row activation
system.mem_ctrls1.bytesPerActivate::total     45611995                       # Bytes accessed per row activation
system.mem_ctrls1.rdPerTurnAround::samples         7657                       # Reads before turning the bus around for writes
system.mem_ctrls1.rdPerTurnAround::mean   5934.263027                       # Reads before turning the bus around for writes
system.mem_ctrls1.rdPerTurnAround::gmean   152.536282                       # Reads before turning the bus around for writes
system.mem_ctrls1.rdPerTurnAround::stdev 72119.424495                       # Reads before turning the bus around for writes
system.mem_ctrls1.rdPerTurnAround::0-131071         7596     99.20%     99.20% # Reads before turning the bus around for writes
system.mem_ctrls1.rdPerTurnAround::131072-262143           29      0.38%     99.58% # Reads before turning the bus around for writes
system.mem_ctrls1.rdPerTurnAround::262144-393215           13      0.17%     99.75% # Reads before turning the bus around for writes
system.mem_ctrls1.rdPerTurnAround::393216-524287            4      0.05%     99.80% # Reads before turning the bus around for writes
system.mem_ctrls1.rdPerTurnAround::524288-655359            3      0.04%     99.84% # Reads before turning the bus around for writes
system.mem_ctrls1.rdPerTurnAround::655360-786431            2      0.03%     99.87% # Reads before turning the bus around for writes
system.mem_ctrls1.rdPerTurnAround::786432-917503            1      0.01%     99.88% # Reads before turning the bus around for writes
system.mem_ctrls1.rdPerTurnAround::917504-1.04858e+06            2      0.03%     99.91% # Reads before turning the bus around for writes
system.mem_ctrls1.rdPerTurnAround::1.17965e+06-1.31072e+06            1      0.01%     99.92% # Reads before turning the bus around for writes
system.mem_ctrls1.rdPerTurnAround::1.57286e+06-1.70394e+06            2      0.03%     99.95% # Reads before turning the bus around for writes
system.mem_ctrls1.rdPerTurnAround::1.70394e+06-1.83501e+06            1      0.01%     99.96% # Reads before turning the bus around for writes
system.mem_ctrls1.rdPerTurnAround::2.09715e+06-2.22822e+06            2      0.03%     99.99% # Reads before turning the bus around for writes
system.mem_ctrls1.rdPerTurnAround::3.40787e+06-3.53894e+06            1      0.01%    100.00% # Reads before turning the bus around for writes
system.mem_ctrls1.rdPerTurnAround::total         7657                       # Reads before turning the bus around for writes
system.mem_ctrls1.wrPerTurnAround::samples         7657                       # Writes before turning the bus around for reads
system.mem_ctrls1.wrPerTurnAround::mean     17.115319                       # Writes before turning the bus around for reads
system.mem_ctrls1.wrPerTurnAround::gmean    17.085837                       # Writes before turning the bus around for reads
system.mem_ctrls1.wrPerTurnAround::stdev     1.001643                       # Writes before turning the bus around for reads
system.mem_ctrls1.wrPerTurnAround::16            3320     43.36%     43.36% # Writes before turning the bus around for reads
system.mem_ctrls1.wrPerTurnAround::17             254      3.32%     46.68% # Writes before turning the bus around for reads
system.mem_ctrls1.wrPerTurnAround::18            3972     51.87%     98.55% # Writes before turning the bus around for reads
system.mem_ctrls1.wrPerTurnAround::19             103      1.35%     99.90% # Writes before turning the bus around for reads
system.mem_ctrls1.wrPerTurnAround::20               7      0.09%     99.99% # Writes before turning the bus around for reads
system.mem_ctrls1.wrPerTurnAround::21               1      0.01%    100.00% # Writes before turning the bus around for reads
system.mem_ctrls1.wrPerTurnAround::total         7657                       # Writes before turning the bus around for reads
system.mem_ctrls1.totQLat                1396672124817                       # Total ticks spent queuing
system.mem_ctrls1.totMemAccLat           2252512574817                       # Total ticks spent from burst creation until serviced by the DRAM
system.mem_ctrls1.totBusLat              228224120000                       # Total ticks spent in databus transfers
system.mem_ctrls1.avgQLat                    30598.70                       # Average queueing delay per DRAM burst
system.mem_ctrls1.avgBusLat                   5000.00                       # Average bus latency per DRAM burst
system.mem_ctrls1.avgMemAccLat               49348.70                       # Average memory access latency per DRAM burst
system.mem_ctrls1.avgRdBW                      207.21                       # Average DRAM read bandwidth in MiByte/s
system.mem_ctrls1.avgWrBW                        0.59                       # Average achieved write bandwidth in MiByte/s
system.mem_ctrls1.avgRdBWSys                   207.25                       # Average system read bandwidth in MiByte/s
system.mem_ctrls1.avgWrBWSys                     0.60                       # Average system write bandwidth in MiByte/s
system.mem_ctrls1.peakBW                     12800.00                       # Theoretical peak bandwidth in MiByte/s
system.mem_ctrls1.busUtil                        1.62                       # Data bus utilization in percentage
system.mem_ctrls1.busUtilRead                    1.62                       # Data bus utilization in percentage for reads
system.mem_ctrls1.busUtilWrite                   0.00                       # Data bus utilization in percentage for writes
system.mem_ctrls1.avgRdQLen                      1.00                       # Average read queue length when enqueuing
system.mem_ctrls1.avgWrQLen                     24.58                       # Average write queue length when enqueuing
system.mem_ctrls1.readRowHits                  141521                       # Number of row buffer hits during reads
system.mem_ctrls1.writeRowHits                  22348                       # Number of row buffer hits during writes
system.mem_ctrls1.readRowHitRate                 0.31                       # Row buffer hit rate for reads
system.mem_ctrls1.writeRowHitRate               17.05                       # Row buffer hit rate for writes
system.mem_ctrls1.avgGap                    307923.56                       # Average gap between requests
system.mem_ctrls1.pageHitRate                    0.36                       # Row buffer hit rate, read and write combined
system.mem_ctrls1_0.actEnergy            163161452160                       # Energy for activate commands per rank (pJ)
system.mem_ctrls1_0.preEnergy             86722353300                       # Energy for precharge commands per rank (pJ)
system.mem_ctrls1_0.readEnergy           163272643380                       # Energy for read commands per rank (pJ)
system.mem_ctrls1_0.writeEnergy             349348500                       # Energy for write commands per rank (pJ)
system.mem_ctrls1_0.refreshEnergy        1112948931120.000244                       # Energy for refresh commands per rank (pJ)
system.mem_ctrls1_0.actBackEnergy        662308991430                       # Energy for active background per rank (pJ)
system.mem_ctrls1_0.preBackEnergy         25074501600                       # Energy for precharge background per rank (pJ)
system.mem_ctrls1_0.actPowerDownEnergy   5501122684530                       # Energy for active power-down per rank (pJ)
system.mem_ctrls1_0.prePowerDownEnergy   198342305280                       # Energy for precharge power-down per rank (pJ)
system.mem_ctrls1_0.selfRefreshEnergy       105142560                       # Energy for self refresh per rank (pJ)
system.mem_ctrls1_0.totalEnergy          7913408870730                       # Total energy per rank (pJ)
system.mem_ctrls1_0.averagePower           561.301401                       # Core power per rank (mW)
system.mem_ctrls1_0.totalIdleTime        12580875198858                       # Total Idle time Per DRAM Rank
system.mem_ctrls1_0.memoryStateTime::IDLE  10642172192                       # Time in different power states
system.mem_ctrls1_0.memoryStateTime::REF 470791204000                       # Time in different power states
system.mem_ctrls1_0.memoryStateTime::SREF    210466018                       # Time in different power states
system.mem_ctrls1_0.memoryStateTime::PRE_PDN 516598980547                       # Time in different power states
system.mem_ctrls1_0.memoryStateTime::ACT 1036015136681                       # Time in different power states
system.mem_ctrls1_0.memoryStateTime::ACT_PDN 12064065798611                       # Time in different power states
system.mem_ctrls1_1.actEnergy            162508277820                       # Energy for activate commands per rank (pJ)
system.mem_ctrls1_1.preEnergy             86375167725                       # Energy for precharge commands per rank (pJ)
system.mem_ctrls1_1.readEnergy           162631399980                       # Energy for read commands per rank (pJ)
system.mem_ctrls1_1.writeEnergy             334742940                       # Energy for write commands per rank (pJ)
system.mem_ctrls1_1.refreshEnergy        1112940326160.000244                       # Energy for refresh commands per rank (pJ)
system.mem_ctrls1_1.actBackEnergy        660219667830                       # Energy for active background per rank (pJ)
system.mem_ctrls1_1.preBackEnergy         25172873280                       # Energy for precharge background per rank (pJ)
system.mem_ctrls1_1.actPowerDownEnergy   5497186291320                       # Energy for active power-down per rank (pJ)
system.mem_ctrls1_1.prePowerDownEnergy   203308309440                       # Energy for precharge power-down per rank (pJ)
system.mem_ctrls1_1.selfRefreshEnergy       105175305                       # Energy for self refresh per rank (pJ)
system.mem_ctrls1_1.totalEnergy          7910782548330                       # Total energy per rank (pJ)
system.mem_ctrls1_1.averagePower           561.115114                       # Core power per rank (mW)
system.mem_ctrls1_1.totalIdleTime        12585474761363                       # Total Idle time Per DRAM Rank
system.mem_ctrls1_1.memoryStateTime::IDLE  10548482699                       # Time in different power states
system.mem_ctrls1_1.memoryStateTime::REF 470787498000                       # Time in different power states
system.mem_ctrls1_1.memoryStateTime::SREF    236728880                       # Time in different power states
system.mem_ctrls1_1.memoryStateTime::PRE_PDN 529498962100                       # Time in different power states
system.mem_ctrls1_1.memoryStateTime::ACT 1031512207002                       # Time in different power states
system.mem_ctrls1_1.memoryStateTime::ACT_PDN 12055739879368                       # Time in different power states
system.pwrStateResidencyTicks::UNDEFINED 176180506920549                       # Cumulative time (in ticks) in various power states
system.cpu.branchPred.lookups                      12                       # Number of BP lookups
system.cpu.branchPred.condPredicted                12                       # Number of conditional branches predicted
system.cpu.branchPred.condIncorrect                 4                       # Number of conditional branches incorrect
system.cpu.branchPred.BTBLookups                    0                       # Number of BTB lookups
system.cpu.branchPred.BTBHits                       0                       # Number of BTB hits
system.cpu.branchPred.BTBCorrect                    0                       # Number of correct BTB predictions (this stat may not work properly.
system.cpu.branchPred.BTBHitPct                   nan                       # BTB Hit Percentage
system.cpu.branchPred.usedRAS                       0                       # Number of times the RAS was used to get a target.
system.cpu.branchPred.RASInCorrect                  0                       # Number of incorrect RAS predictions.
system.cpu.branchPred.indirectLookups               0                       # Number of indirect predictor lookups.
system.cpu.branchPred.indirectHits                  0                       # Number of indirect target hits.
system.cpu.branchPred.indirectMisses                0                       # Number of indirect misses.
system.cpu.branchPredindirectMispredicted            0                       # Number of mispredicted indirect branches.
system.cpu_voltage_domain.voltage                   1                       # Voltage in Volts
system.cpu_clk_domain.clock                       333                       # Clock period in ticks
system.cpu.dtb.fetch_hits                           0                       # ITB hits
system.cpu.dtb.fetch_misses                         0                       # ITB misses
system.cpu.dtb.fetch_acv                            0                       # ITB acv
system.cpu.dtb.fetch_accesses                       0                       # ITB accesses
system.cpu.dtb.read_hits                            1                       # DTB read hits
system.cpu.dtb.read_misses                         11                       # DTB read misses
system.cpu.dtb.read_acv                             0                       # DTB read access violations
system.cpu.dtb.read_accesses                       12                       # DTB read accesses
system.cpu.dtb.write_hits                           0                       # DTB write hits
system.cpu.dtb.write_misses                         0                       # DTB write misses
system.cpu.dtb.write_acv                            0                       # DTB write access violations
system.cpu.dtb.write_accesses                       0                       # DTB write accesses
system.cpu.dtb.data_hits                            1                       # DTB hits
system.cpu.dtb.data_misses                         11                       # DTB misses
system.cpu.dtb.data_acv                             0                       # DTB access violations
system.cpu.dtb.data_accesses                       12                       # DTB accesses
system.cpu.itb.fetch_hits                          12                       # ITB hits
system.cpu.itb.fetch_misses                         0                       # ITB misses
system.cpu.itb.fetch_acv                            0                       # ITB acv
system.cpu.itb.fetch_accesses                      12                       # ITB accesses
system.cpu.itb.read_hits                            0                       # DTB read hits
system.cpu.itb.read_misses                          0                       # DTB read misses
system.cpu.itb.read_acv                             0                       # DTB read access violations
system.cpu.itb.read_accesses                        0                       # DTB read accesses
system.cpu.itb.write_hits                           0                       # DTB write hits
system.cpu.itb.write_misses                         0                       # DTB write misses
system.cpu.itb.write_acv                            0                       # DTB write access violations
system.cpu.itb.write_accesses                       0                       # DTB write accesses
system.cpu.itb.data_hits                            0                       # DTB hits
system.cpu.itb.data_misses                          0                       # DTB misses
system.cpu.itb.data_acv                             0                       # DTB access violations
system.cpu.itb.data_accesses                        0                       # DTB accesses
system.cpu.workload.num_syscalls                    0                       # Number of system calls
system.cpu.pwrStateResidencyTicks::ON    14098323758049                       # Cumulative time (in ticks) in various power states
system.cpu.numCycles                              600                       # number of cpu cycles simulated
system.cpu.numWorkItemsStarted                      0                       # number of work items this cpu started
[...]
system.switch_cpus_1.iew.lsq.thread0.invAddrLoads            0                       # Number of loads ignored due to an invalid address
system.switch_cpus_1.iew.lsq.thread0.squashedLoads   2481590507                       # Number of loads squashed
system.switch_cpus_1.iew.lsq.thread0.ignoredResponses           80                       # Number of memory responses ignored because the instruction is squashed
system.switch_cpus_1.iew.lsq.thread0.memOrderViolation         2874                       # Number of memory ordering violations
system.switch_cpus_1.iew.lsq.thread0.squashedStores      1621047                       # Number of stores squashed
system.switch_cpus_1.iew.lsq.thread0.invAddrSwpfs            0                       # Number of software prefetches ignored due to an invalid address
system.switch_cpus_1.iew.lsq.thread0.blockedLoads            0                       # Number of blocked loads due to partial load-store forwarding
system.switch_cpus_1.iew.lsq.thread0.rescheduledLoads            5                       # Number of loads that were rescheduled
system.switch_cpus_1.iew.lsq.thread0.cacheBlocked       182754                       # Number of times an access to memory failed due to the cache being blocked
system.switch_cpus_1.iew.iewIdleCycles              0                       # Number of cycles IEW is idle
system.switch_cpus_1.iew.iewSquashCycles     82111482                       # Number of cycles IEW is squashing
system.switch_cpus_1.iew.iewBlockCycles   12106099762                       # Number of cycles IEW is blocking
system.switch_cpus_1.iew.iewUnblockCycles    116222683                       # Number of cycles IEW is unblocking
system.switch_cpus_1.iew.iewDispatchedInsts   8033550062                       # Number of instructions dispatched to IQ
system.switch_cpus_1.iew.iewDispSquashedInsts        20836                       # Number of squashed instructions skipped by dispatch
system.switch_cpus_1.iew.iewDispLoadInsts   2642148620                       # Number of dispatched load instructions
system.switch_cpus_1.iew.iewDispStoreInsts      2081043                       # Number of dispatched store instructions
system.switch_cpus_1.iew.iewDispNonSpecInsts            0                       # Number of dispatched non-speculative instructions
system.switch_cpus_1.iew.iewIQFullEvents     47979507                       # Number of times the IQ has become full, causing a stall
system.switch_cpus_1.iew.iewLSQFullEvents     27152780                       # Number of times the LSQ has become full, causing a stall
system.switch_cpus_1.iew.memOrderViolationEvents         2874                       # Number of memory order violations
system.switch_cpus_1.iew.predictedTakenIncorrect      4182350                       # Number of branches that were predicted taken incorrectly
system.switch_cpus_1.iew.predictedNotTakenIncorrect      6976858                       # Number of branches that were predicted not taken incorrectly
system.switch_cpus_1.iew.branchMispredicts     11159208                       # Number of branch mispredicts detected at execute
system.switch_cpus_1.iew.iewExecutedInsts   4570626499                       # Number of executed instructions
system.switch_cpus_1.iew.iewExecLoadInsts   1849695247                       # Number of load instructions executed
system.switch_cpus_1.iew.iewExecSquashedInsts     10534914                       # Number of squashed instructions skipped in execute
system.switch_cpus_1.iew.exec_swp                   0                       # number of swp insts executed
system.switch_cpus_1.iew.exec_nop              399356                       # number of nop insts executed
system.switch_cpus_1.iew.exec_refs         1850328130                       # number of memory reference insts executed
system.switch_cpus_1.iew.exec_branches      544370366                       # Number of branches executed
system.switch_cpus_1.iew.exec_stores           632883                       # Number of stores executed
system.switch_cpus_1.iew.exec_rate           0.306027                       # Inst execution rate
system.switch_cpus_1.iew.wb_sent           4568021595                       # cumulative count of insts sent to commit
system.switch_cpus_1.iew.wb_count          2882664580                       # cumulative count of insts written-back
system.switch_cpus_1.iew.wb_producers      1660314132                       # num instructions producing a value
system.switch_cpus_1.iew.wb_consumers      2287704898                       # num instructions consuming a value
system.switch_cpus_1.iew.wb_rate             0.193009                       # insts written-back per cycle
system.switch_cpus_1.iew.wb_fanout           0.725755                       # average fanout of values written-back
system.switch_cpus_1.commit.commitSquashedInsts   6960968542                       # The number of squashed insts skipped by commit
system.switch_cpus_1.commit.branchMispredicts     10673439                       # The number of times a branch was mispredicted
system.switch_cpus_1.commit.committed_per_cycle::samples  14033976709                       # Number of insts commited each cycle
system.switch_cpus_1.commit.committed_per_cycle::mean     0.035634                       # Number of insts commited each cycle
system.switch_cpus_1.commit.committed_per_cycle::stdev     0.354693                       # Number of insts commited each cycle
system.switch_cpus_1.commit.committed_per_cycle::underflows            0      0.00%      0.00% # Number of insts commited each cycle
system.switch_cpus_1.commit.committed_per_cycle::0  13779316007     98.19%     98.19% # Number of insts commited each cycle
system.switch_cpus_1.commit.committed_per_cycle::1    138250245      0.99%     99.17% # Number of insts commited each cycle
system.switch_cpus_1.commit.committed_per_cycle::2     79486329      0.57%     99.74% # Number of insts commited each cycle
system.switch_cpus_1.commit.committed_per_cycle::3     15075433      0.11%     99.84% # Number of insts commited each cycle
system.switch_cpus_1.commit.committed_per_cycle::4      4136983      0.03%     99.87% # Number of insts commited each cycle
system.switch_cpus_1.commit.committed_per_cycle::5       115321      0.00%     99.87% # Number of insts commited each cycle
system.switch_cpus_1.commit.committed_per_cycle::6        61563      0.00%     99.88% # Number of insts commited each cycle
system.switch_cpus_1.commit.committed_per_cycle::7       133057      0.00%     99.88% # Number of insts commited each cycle
system.switch_cpus_1.commit.committed_per_cycle::8     17401771      0.12%    100.00% # Number of insts commited each cycle
system.switch_cpus_1.commit.committed_per_cycle::overflows            0      0.00%    100.00% # Number of insts commited each cycle
system.switch_cpus_1.commit.committed_per_cycle::min_value            0                       # Number of insts commited each cycle
system.switch_cpus_1.commit.committed_per_cycle::max_value            8                       # Number of insts commited each cycle
system.switch_cpus_1.commit.committed_per_cycle::total  14033976709                       # Number of insts commited each cycle
system.switch_cpus_1.commit.committedInsts    500088684                       # Number of instructions committed
system.switch_cpus_1.commit.committedOps    500088684                       # Number of ops (including micro ops) committed
system.switch_cpus_1.commit.swp_count               0                       # Number of s/w prefetches committed
system.switch_cpus_1.commit.refs            161018083                       # Number of memory references committed
system.switch_cpus_1.commit.loads           160558087                       # Number of loads committed
system.switch_cpus_1.commit.membars                 0                       # Number of memory barriers committed
system.switch_cpus_1.commit.branches        123982567                       # Number of branches committed
system.switch_cpus_1.commit.fp_insts                0                       # Number of committed floating point instructions.
system.switch_cpus_1.commit.int_insts       499857537                       # Number of committed integer instructions.
system.switch_cpus_1.commit.function_calls        11661                       # Number of function calls committed.
system.switch_cpus_1.commit.op_class_0::No_OpClass        88683      0.02%      0.02% # Class of committed instruction
system.switch_cpus_1.commit.op_class_0::IntAlu    338981412     67.78%     67.80% # Class of committed instruction
system.switch_cpus_1.commit.op_class_0::IntMult          506      0.00%     67.80% # Class of committed instruction
system.switch_cpus_1.commit.op_class_0::IntDiv            0      0.00%     67.80% # Class of committed instruction
system.switch_cpus_1.commit.op_class_0::FloatAdd            0      0.00%     67.80% # Class of committed instruction
system.switch_cpus_1.commit.op_class_0::FloatCmp            0      0.00%     67.80% # Class of committed instruction
system.switch_cpus_1.commit.op_class_0::FloatCvt            0      0.00%     67.80% # Class of committed instruction
system.switch_cpus_1.commit.op_class_0::FloatMult            0      0.00%     67.80% # Class of committed instruction
system.switch_cpus_1.commit.op_class_0::FloatMultAcc            0      0.00%     67.80% # Class of committed instruction
system.switch_cpus_1.commit.op_class_0::FloatDiv            0      0.00%     67.80% # Class of committed instruction
system.switch_cpus_1.commit.op_class_0::FloatMisc            0      0.00%     67.80% # Class of committed instruction
system.switch_cpus_1.commit.op_class_0::FloatSqrt            0      0.00%     67.80% # Class of committed instruction
system.switch_cpus_1.commit.op_class_0::SimdAdd            0      0.00%     67.80% # Class of committed instruction
system.switch_cpus_1.commit.op_class_0::SimdAddAcc            0      0.00%     67.80% # Class of committed instruction
system.switch_cpus_1.commit.op_class_0::SimdAlu            0      0.00%     67.80% # Class of committed instruction
system.switch_cpus_1.commit.op_class_0::SimdCmp            0      0.00%     67.80% # Class of committed instruction
system.switch_cpus_1.commit.op_class_0::SimdCvt            0      0.00%     67.80% # Class of committed instruction
system.switch_cpus_1.commit.op_class_0::SimdMisc            0      0.00%     67.80% # Class of committed instruction
system.switch_cpus_1.commit.op_class_0::SimdMult            0      0.00%     67.80% # Class of committed instruction
system.switch_cpus_1.commit.op_class_0::SimdMultAcc            0      0.00%     67.80% # Class of committed instruction
system.switch_cpus_1.commit.op_class_0::SimdShift            0      0.00%     67.80% # Class of committed instruction
system.switch_cpus_1.commit.op_class_0::SimdShiftAcc            0      0.00%     67.80% # Class of committed instruction
system.switch_cpus_1.commit.op_class_0::SimdSqrt            0      0.00%     67.80% # Class of committed instruction
system.switch_cpus_1.commit.op_class_0::SimdFloatAdd            0      0.00%     67.80% # Class of committed instruction
system.switch_cpus_1.commit.op_class_0::SimdFloatAlu            0      0.00%     67.80% # Class of committed instruction
system.switch_cpus_1.commit.op_class_0::SimdFloatCmp            0      0.00%     67.80% # Class of committed instruction
system.switch_cpus_1.commit.op_class_0::SimdFloatCvt            0      0.00%     67.80% # Class of committed instruction
system.switch_cpus_1.commit.op_class_0::SimdFloatDiv            0      0.00%     67.80% # Class of committed instruction
system.switch_cpus_1.commit.op_class_0::SimdFloatMisc            0      0.00%     67.80% # Class of committed instruction
system.switch_cpus_1.commit.op_class_0::SimdFloatMult            0      0.00%     67.80% # Class of committed instruction
system.switch_cpus_1.commit.op_class_0::SimdFloatMultAcc            0      0.00%     67.80% # Class of committed instruction
system.switch_cpus_1.commit.op_class_0::SimdFloatSqrt            0      0.00%     67.80% # Class of committed instruction
system.switch_cpus_1.commit.op_class_0::MemRead    160558087     32.11%     99.91% # Class of committed instruction
system.switch_cpus_1.commit.op_class_0::MemWrite       459996      0.09%    100.00% # Class of committed instruction
system.switch_cpus_1.commit.op_class_0::FloatMemRead            0      0.00%    100.00% # Class of committed instruction
system.switch_cpus_1.commit.op_class_0::FloatMemWrite            0      0.00%    100.00% # Class of committed instruction
system.switch_cpus_1.commit.op_class_0::IprAccess            0      0.00%    100.00% # Class of committed instruction
system.switch_cpus_1.commit.op_class_0::InstPrefetch            0      0.00%    100.00% # Class of committed instruction
system.switch_cpus_1.commit.op_class_0::total    500088684                       # Class of committed instruction
system.switch_cpus_1.commit.bw_lim_events     17401771                       # number cycles where commit BW limit reached
system.switch_cpus_1.rob.rob_reads        20548974122                       # The number of ROB reads
system.switch_cpus_1.rob.rob_writes       15823501975                       # The number of ROB writes
system.switch_cpus_1.timesIdled                    16                       # Number of times that the entire CPU went into an idle state and unscheduled itself
system.switch_cpus_1.idleCycles                   924                       # Total number of cycles that the CPU has spent unscheduled due to idling
system.switch_cpus_1.committedInsts         500000001                       # Number of Instructions Simulated
system.switch_cpus_1.committedOps           500000001                       # Number of Ops (including micro ops) Simulated
system.switch_cpus_1.cpi                    29.870729                       # CPI: Cycles Per Instruction
system.switch_cpus_1.cpi_total              29.870729                       # CPI: Total CPI of All Threads
system.switch_cpus_1.ipc                     0.033478                       # IPC: Instructions Per Cycle
system.switch_cpus_1.ipc_total               0.033478                       # IPC: Total IPC of All Threads
system.switch_cpus_1.int_regfile_reads     6714612635                       # number of integer regfile reads
system.switch_cpus_1.int_regfile_writes    2337862901                       # number of integer regfile writes
system.switch_cpus_1.fp_regfile_reads              25                       # number of floating regfile reads
system.switch_cpus_1.fp_regfile_writes             32                       # number of floating regfile writes
system.tol3bus.snoop_filter.tot_requests    355501931                       # Total number of requests made to the snoop filter.
system.tol3bus.snoop_filter.hit_single_requests    177749111                       # Number of requests hitting in the snoop filter with a single holder of the requested data.
system.tol3bus.snoop_filter.hit_multi_requests            0                       # Number of requests hitting in the snoop filter with multiple (>1) holders of the requested data.
system.tol3bus.snoop_filter.tot_snoops          49247                       # Total number of snoops made to the snoop filter.
system.tol3bus.snoop_filter.hit_single_snoops        49247                       # Number of snoops hitting in the snoop filter with a single holder of the requested data.
system.tol3bus.snoop_filter.hit_multi_snoops            0                       # Number of snoops hitting in the snoop filter with multiple (>1) holders of the requested data.
system.tol3bus.pwrStateResidencyTicks::UNDEFINED 176180506920549                       # Cumulative time (in ticks) in various power states
system.tol3bus.trans_dist::ReadResp         177725506                       # Transaction distribution
system.tol3bus.trans_dist::WritebackDirty      6398907                       # Transaction distribution
system.tol3bus.trans_dist::CleanEvict       262570107                       # Transaction distribution
system.tol3bus.trans_dist::ReadExReq            27314                       # Transaction distribution
system.tol3bus.trans_dist::ReadExResp           27314                       # Transaction distribution
system.tol3bus.trans_dist::ReadSharedReq    177725506                       # Transaction distribution
system.tol3bus.pkt_count_system.cpu.l2.mem_side::system.l3.cpu_side    533254751                       # Packet count per connected master and slave (bytes)
system.tol3bus.pkt_size_system.cpu.l2.mem_side::system.l3.cpu_side  11768932672                       # Cumulative packet size per connected master and slave (bytes)
system.tol3bus.snoops                        91219903                       # Total snoops (count)
system.tol3bus.snoopTraffic                  16777856                       # Total snoop traffic (bytes)
system.tol3bus.snoop_fanout::samples        268972723                       # Request fanout histogram
system.tol3bus.snoop_fanout::mean            0.000183                       # Request fanout histogram
system.tol3bus.snoop_fanout::stdev           0.013530                       # Request fanout histogram
system.tol3bus.snoop_fanout::underflows             0      0.00%      0.00% # Request fanout histogram
system.tol3bus.snoop_fanout::0              268923476     99.98%     99.98% # Request fanout histogram
system.tol3bus.snoop_fanout::1                  49247      0.02%    100.00% # Request fanout histogram
system.tol3bus.snoop_fanout::overflows              0      0.00%    100.00% # Request fanout histogram
system.tol3bus.snoop_fanout::min_value              0                       # Request fanout histogram
system.tol3bus.snoop_fanout::max_value              1                       # Request fanout histogram
system.tol3bus.snoop_fanout::total          268972723                       # Request fanout histogram
system.tol3bus.reqLayer0.occupancy       120425681772                       # Layer occupancy (ticks)
system.tol3bus.reqLayer0.utilization              0.9                       # Layer utilization (%)
system.tol3bus.respLayer0.occupancy      118383378120                       # Layer occupancy (ticks)
system.tol3bus.respLayer0.utilization             0.8                       # Layer utilization (%)

---------- End Simulation Statistics   ----------
3bus.snoop_fanout::mean            0.115808                       # Request fanout histogram
system.tol3bus.snoop_fanout::stdev           0.319995                       # Request fanout histogram
system.tol3bus.snoop_fanout::underflows             0      0.00%      0.00% # Request fanout histogram
system.tol3bus.snoop_fanout::0              259438004     88.42%     88.42% # Request fanout histogram
system.tol3bus.snoop_fanout::1               33980331     11.58%    100.00% # Request fanout histogram
system.tol3bus.snoop_fanout::overflows              0      0.00%    100.00% # Request fanout histogram
system.tol3bus.snoop_fanout::min_value              0                       # Request fanout histogram
system.tol3bus.snoop_fanout::max_value              1                       # Request fanout histogram
system.tol3bus.snoop_fanout::total          293418335                       # Request fanout histogram
system.tol3bus.reqLayer0.occupancy       122222446875                       # Layer occupancy (ticks)
system.tol3bus.reqLayer0.utilization              0.8                       # Layer utilization (%)
system.tol3bus.respLayer0.occupancy      118382975856                       # Layer occupancy (ticks)
system.tol3bus.respLayer0.utilization             0.7                       # Layer utilization (%)

---------- End Simulation Statistics   ----------
