
---------- Begin Simulation Statistics ----------
sim_seconds                                  1.441654                       # Number of seconds simulated
sim_ticks                                1441653825944                       # Number of ticks simulated
final_tick                               191492963740944                       # Number of ticks from beginning of simulation (restored from checkpoints and never reset)
sim_freq                                 1000000000000                       # Frequency of simulated ticks
host_inst_rate                                 397302                       # Simulator instruction rate (inst/s)
host_op_rate                                   397302                       # Simulator op (including micro ops) rate (op/s)
host_tick_rate                              477310189                       # Simulator tick rate (ticks/s)
host_mem_usage                                2538904                       # Number of bytes of host memory used
host_seconds                                  3020.37                       # Real time elapsed on the host
sim_insts                                  1200000007                       # Number of instructions simulated
sim_ops                                    1200000007                       # Number of ops (including micro ops) simulated
system.voltage_domain.voltage                       1                       # Voltage in Volts
system.clk_domain.clock                          1000                       # Clock period in ticks
system.mem_ctrls0.pwrStateResidencyTicks::UNDEFINED 191492963740944                       # Cumulative time (in ticks) in various power states
system.mem_ctrls0.bytes_read::cpu.inst            192                       # Number of bytes read from this memory
system.mem_ctrls0.bytes_read::cpu.data            192                       # Number of bytes read from this memory
system.mem_ctrls0.bytes_read::switch_cpus.inst        12992                       # Number of bytes read from this memory
system.mem_ctrls0.bytes_read::switch_cpus.data     20211968                       # Number of bytes read from this memory
system.mem_ctrls0.bytes_read::switch_cpus_1.inst          320                       # Number of bytes read from this memory
system.mem_ctrls0.bytes_read::switch_cpus_1.data      4559104                       # Number of bytes read from this memory
system.mem_ctrls0.bytes_read::total          24784768                       # Number of bytes read from this memory
system.mem_ctrls0.bytes_inst_read::cpu.inst          192                       # Number of instructions bytes read from this memory
system.mem_ctrls0.bytes_inst_read::switch_cpus.inst        12992                       # Number of instructions bytes read from this memory
system.mem_ctrls0.bytes_inst_read::switch_cpus_1.inst          320                       # Number of instructions bytes read from this memory
system.mem_ctrls0.bytes_inst_read::total        13504                       # Number of instructions bytes read from this memory
system.mem_ctrls0.bytes_written::writebacks     15703680                       # Number of bytes written to this memory
system.mem_ctrls0.bytes_written::total       15703680                       # Number of bytes written to this memory
system.mem_ctrls0.num_reads::cpu.inst               3                       # Number of read requests responded to by this memory
system.mem_ctrls0.num_reads::cpu.data               3                       # Number of read requests responded to by this memory
system.mem_ctrls0.num_reads::switch_cpus.inst          203                       # Number of read requests responded to by this memory
system.mem_ctrls0.num_reads::switch_cpus.data       315812                       # Number of read requests responded to by this memory
system.mem_ctrls0.num_reads::switch_cpus_1.inst            5                       # Number of read requests responded to by this memory
system.mem_ctrls0.num_reads::switch_cpus_1.data        71236                       # Number of read requests responded to by this memory
system.mem_ctrls0.num_reads::total             387262                       # Number of read requests responded to by this memory
system.mem_ctrls0.num_writes::writebacks       245370                       # Number of write requests responded to by this memory
system.mem_ctrls0.num_writes::total            245370                       # Number of write requests responded to by this memory
system.mem_ctrls0.bw_read::cpu.inst               133                       # Total read bandwidth from this memory (bytes/s)
system.mem_ctrls0.bw_read::cpu.data               133                       # Total read bandwidth from this memory (bytes/s)
system.mem_ctrls0.bw_read::switch_cpus.inst         9012                       # Total read bandwidth from this memory (bytes/s)
system.mem_ctrls0.bw_read::switch_cpus.data     14019987                       # Total read bandwidth from this memory (bytes/s)
system.mem_ctrls0.bw_read::switch_cpus_1.inst          222                       # Total read bandwidth from this memory (bytes/s)
system.mem_ctrls0.bw_read::switch_cpus_1.data      3162412                       # Total read bandwidth from this memory (bytes/s)
system.mem_ctrls0.bw_read::total             17191900                       # Total read bandwidth from this memory (bytes/s)
system.mem_ctrls0.bw_inst_read::cpu.inst          133                       # Instruction read bandwidth from this memory (bytes/s)
system.mem_ctrls0.bw_inst_read::switch_cpus.inst         9012                       # Instruction read bandwidth from this memory (bytes/s)
system.mem_ctrls0.bw_inst_read::switch_cpus_1.inst          222                       # Instruction read bandwidth from this memory (bytes/s)
system.mem_ctrls0.bw_inst_read::total            9367                       # Instruction read bandwidth from this memory (bytes/s)
system.mem_ctrls0.bw_write::writebacks       10892823                       # Write bandwidth from this memory (bytes/s)
system.mem_ctrls0.bw_write::total            10892823                       # Write bandwidth from this memory (bytes/s)
system.mem_ctrls0.bw_total::writebacks       10892823                       # Total bandwidth to/from this memory (bytes/s)
system.mem_ctrls0.bw_total::cpu.inst              133                       # Total bandwidth to/from this memory (bytes/s)
system.mem_ctrls0.bw_total::cpu.data              133                       # Total bandwidth to/from this memory (bytes/s)
system.mem_ctrls0.bw_total::switch_cpus.inst         9012                       # Total bandwidth to/from this memory (bytes/s)
system.mem_ctrls0.bw_total::switch_cpus.data     14019987                       # Total bandwidth to/from this memory (bytes/s)
system.mem_ctrls0.bw_total::switch_cpus_1.inst          222                       # Total bandwidth to/from this memory (bytes/s)
system.mem_ctrls0.bw_total::switch_cpus_1.data      3162412                       # Total bandwidth to/from this memory (bytes/s)
system.mem_ctrls0.bw_total::total            28084723                       # Total bandwidth to/from this memory (bytes/s)
system.mem_ctrls0.readReqs                     387262                       # Number of read requests accepted
system.mem_ctrls0.writeReqs                    245370                       # Number of write requests accepted
system.mem_ctrls0.readBursts                   387262                       # Number of DRAM read bursts, including those serviced by the write queue
system.mem_ctrls0.writeBursts                  245370                       # Number of DRAM write bursts, including those merged in the write queue
system.mem_ctrls0.bytesReadDRAM              24725440                       # Total number of bytes read from DRAM
system.mem_ctrls0.bytesReadWrQ                  59328                       # Total number of bytes read from write queue
system.mem_ctrls0.bytesWritten               15702016                       # Total number of bytes written to DRAM
system.mem_ctrls0.bytesReadSys               24784768                       # Total read bytes from the system interface side
system.mem_ctrls0.bytesWrittenSys            15703680                       # Total written bytes from the system interface side
system.mem_ctrls0.servicedByWrQ                   927                       # Number of DRAM read bursts serviced by the write queue
system.mem_ctrls0.mergedWrBursts                    0                       # Number of DRAM write bursts merged with an existing one
system.mem_ctrls0.neitherReadNorWriteReqs            0                       # Number of requests that are neither read nor write
system.mem_ctrls0.perBankRdBursts::0            25339                       # Per bank write bursts
system.mem_ctrls0.perBankRdBursts::1            24704                       # Per bank write bursts
system.mem_ctrls0.perBankRdBursts::2            25574                       # Per bank write bursts
system.mem_ctrls0.perBankRdBursts::3            24789                       # Per bank write bursts
system.mem_ctrls0.perBankRdBursts::4            22800                       # Per bank write bursts
system.mem_ctrls0.perBankRdBursts::5            23604                       # Per bank write bursts
system.mem_ctrls0.perBankRdBursts::6            23706                       # Per bank write bursts
system.mem_ctrls0.perBankRdBursts::7            24490                       # Per bank write bursts
system.mem_ctrls0.perBankRdBursts::8            24958                       # Per bank write bursts
system.mem_ctrls0.perBankRdBursts::9            23637                       # Per bank write bursts
system.mem_ctrls0.perBankRdBursts::10           24055                       # Per bank write bursts
system.mem_ctrls0.perBankRdBursts::11           23709                       # Per bank write bursts
system.mem_ctrls0.perBankRdBursts::12           22548                       # Per bank write bursts
system.mem_ctrls0.perBankRdBursts::13           23348                       # Per bank write bursts
system.mem_ctrls0.perBankRdBursts::14           23815                       # Per bank write bursts
system.mem_ctrls0.perBankRdBursts::15           25259                       # Per bank write bursts
system.mem_ctrls0.perBankWrBursts::0            16114                       # Per bank write bursts
system.mem_ctrls0.perBankWrBursts::1            15701                       # Per bank write bursts
system.mem_ctrls0.perBankWrBursts::2            16185                       # Per bank write bursts
system.mem_ctrls0.perBankWrBursts::3            15606                       # Per bank write bursts
system.mem_ctrls0.perBankWrBursts::4            14168                       # Per bank write bursts
system.mem_ctrls0.perBankWrBursts::5            14984                       # Per bank write bursts
system.mem_ctrls0.perBankWrBursts::6            15220                       # Per bank write bursts
system.mem_ctrls0.perBankWrBursts::7            15785                       # Per bank write bursts
system.mem_ctrls0.perBankWrBursts::8            15904                       # Per bank write bursts
system.mem_ctrls0.perBankWrBursts::9            15005                       # Per bank write bursts
system.mem_ctrls0.perBankWrBursts::10           15193                       # Per bank write bursts
system.mem_ctrls0.perBankWrBursts::11           15052                       # Per bank write bursts
system.mem_ctrls0.perBankWrBursts::12           14400                       # Per bank write bursts
system.mem_ctrls0.perBankWrBursts::13           14728                       # Per bank write bursts
system.mem_ctrls0.perBankWrBursts::14           15089                       # Per bank write bursts
system.mem_ctrls0.perBankWrBursts::15           16210                       # Per bank write bursts
system.mem_ctrls0.numRdRetry                        0                       # Number of times read queue was full causing retry
system.mem_ctrls0.numWrRetry                        0                       # Number of times write queue was full causing retry
system.mem_ctrls0.totGap                 1441535625729                       # Total gap between requests
system.mem_ctrls0.readPktSize::0                    0                       # Read request sizes (log2)
system.mem_ctrls0.readPktSize::1                    0                       # Read request sizes (log2)
system.mem_ctrls0.readPktSize::2                    0                       # Read request sizes (log2)
system.mem_ctrls0.readPktSize::3                    0                       # Read request sizes (log2)
system.mem_ctrls0.readPktSize::4                    0                       # Read request sizes (log2)
system.mem_ctrls0.readPktSize::5                    0                       # Read request sizes (log2)
system.mem_ctrls0.readPktSize::6               387262                       # Read request sizes (log2)
system.mem_ctrls0.writePktSize::0                   0                       # Write request sizes (log2)
system.mem_ctrls0.writePktSize::1                   0                       # Write request sizes (log2)
system.mem_ctrls0.writePktSize::2                   0                       # Write request sizes (log2)
system.mem_ctrls0.writePktSize::3                   0                       # Write request sizes (log2)
system.mem_ctrls0.writePktSize::4                   0                       # Write request sizes (log2)
system.mem_ctrls0.writePktSize::5                   0                       # Write request sizes (log2)
system.mem_ctrls0.writePktSize::6              245370                       # Write request sizes (log2)
system.mem_ctrls0.rdQLenPdf::0                 381339                       # What read queue length does an incoming req see
system.mem_ctrls0.rdQLenPdf::1                   4892                       # What read queue length does an incoming req see
system.mem_ctrls0.rdQLenPdf::2                     97                       # What read queue length does an incoming req see
system.mem_ctrls0.rdQLenPdf::3                      6                       # What read queue length does an incoming req see
system.mem_ctrls0.rdQLenPdf::4                      1                       # What read queue length does an incoming req see
system.mem_ctrls0.rdQLenPdf::5                      0                       # What read queue length does an incoming req see
system.mem_ctrls0.rdQLenPdf::6                      0                       # What read queue length does an incoming req see
system.mem_ctrls0.rdQLenPdf::7                      0                       # What read queue length does an incoming req see
system.mem_ctrls0.rdQLenPdf::8                      0                       # What read queue length does an incoming req see
system.mem_ctrls0.rdQLenPdf::9                      0                       # What read queue length does an incoming req see
system.mem_ctrls0.rdQLenPdf::10                     0                       # What read queue length does an incoming req see
system.mem_ctrls0.rdQLenPdf::11                     0                       # What read queue length does an incoming req see
system.mem_ctrls0.rdQLenPdf::12                     0                       # What read queue length does an incoming req see
system.mem_ctrls0.rdQLenPdf::13                     0                       # What read queue length does an incoming req see
system.mem_ctrls0.rdQLenPdf::14                     0                       # What read queue length does an incoming req see
system.mem_ctrls0.rdQLenPdf::15                     0                       # What read queue length does an incoming req see
system.mem_ctrls0.rdQLenPdf::16                     0                       # What read queue length does an incoming req see
system.mem_ctrls0.rdQLenPdf::17                     0                       # What read queue length does an incoming req see
system.mem_ctrls0.rdQLenPdf::18                     0                       # What read queue length does an incoming req see
system.mem_ctrls0.rdQLenPdf::19                     0                       # What read queue length does an incoming req see
system.mem_ctrls0.rdQLenPdf::20                     0                       # What read queue length does an incoming req see
system.mem_ctrls0.rdQLenPdf::21                     0                       # What read queue length does an incoming req see
system.mem_ctrls0.rdQLenPdf::22                     0                       # What read queue length does an incoming req see
system.mem_ctrls0.rdQLenPdf::23                     0                       # What read queue length does an incoming req see
system.mem_ctrls0.rdQLenPdf::24                     0                       # What read queue length does an incoming req see
system.mem_ctrls0.rdQLenPdf::25                     0                       # What read queue length does an incoming req see
system.mem_ctrls0.rdQLenPdf::26                     0                       # What read queue length does an incoming req see
system.mem_ctrls0.rdQLenPdf::27                     0                       # What read queue length does an incoming req see
system.mem_ctrls0.rdQLenPdf::28                     0                       # What read queue length does an incoming req see
system.mem_ctrls0.rdQLenPdf::29                     0                       # What read queue length does an incoming req see
system.mem_ctrls0.rdQLenPdf::30                     0                       # What read queue length does an incoming req see
system.mem_ctrls0.rdQLenPdf::31                     0                       # What read queue length does an incoming req see
system.mem_ctrls0.wrQLenPdf::0                      2                       # What write queue length does an incoming req see
system.mem_ctrls0.wrQLenPdf::1                      2                       # What write queue length does an incoming req see
system.mem_ctrls0.wrQLenPdf::2                      2                       # What write queue length does an incoming req see
system.mem_ctrls0.wrQLenPdf::3                      2                       # What write queue length does an incoming req see
system.mem_ctrls0.wrQLenPdf::4                      2                       # What write queue length does an incoming req see
system.mem_ctrls0.wrQLenPdf::5                      2                       # What write queue length does an incoming req see
system.mem_ctrls0.wrQLenPdf::6                      2                       # What write queue length does an incoming req see
system.mem_ctrls0.wrQLenPdf::7                      2                       # What write queue length does an incoming req see
system.mem_ctrls0.wrQLenPdf::8                      2                       # What write queue length does an incoming req see
system.mem_ctrls0.wrQLenPdf::9                      2                       # What write queue length does an incoming req see
system.mem_ctrls0.wrQLenPdf::10                     2                       # What write queue length does an incoming req see
system.mem_ctrls0.wrQLenPdf::11                     2                       # What write queue length does an incoming req see
system.mem_ctrls0.wrQLenPdf::12                     2                       # What write queue length does an incoming req see
system.mem_ctrls0.wrQLenPdf::13                     2                       # What write queue length does an incoming req see
system.mem_ctrls0.wrQLenPdf::14                     2                       # What write queue length does an incoming req see
system.mem_ctrls0.wrQLenPdf::15                 11568                       # What write queue length does an incoming req see
system.mem_ctrls0.wrQLenPdf::16                 11764                       # What write queue length does an incoming req see
system.mem_ctrls0.wrQLenPdf::17                 13656                       # What write queue length does an incoming req see
system.mem_ctrls0.wrQLenPdf::18                 13871                       # What write queue length does an incoming req see
system.mem_ctrls0.wrQLenPdf::19                 13883                       # What write queue length does an incoming req see
system.mem_ctrls0.wrQLenPdf::20                 13876                       # What write queue length does an incoming req see
system.mem_ctrls0.wrQLenPdf::21                 13893                       # What write queue length does an incoming req see
system.mem_ctrls0.wrQLenPdf::22                 13941                       # What write queue length does an incoming req see
system.mem_ctrls0.wrQLenPdf::23                 13964                       # What write queue length does an incoming req see
system.mem_ctrls0.wrQLenPdf::24                 13905                       # What write queue length does an incoming req see
system.mem_ctrls0.wrQLenPdf::25                 13907                       # What write queue length does an incoming req see
system.mem_ctrls0.wrQLenPdf::26                 13896                       # What write queue length does an incoming req see
system.mem_ctrls0.wrQLenPdf::27                 13890                       # What write queue length does an incoming req see
system.mem_ctrls0.wrQLenPdf::28                 13882                       # What write queue length does an incoming req see
system.mem_ctrls0.wrQLenPdf::29                 13853                       # What write queue length does an incoming req see
system.mem_ctrls0.wrQLenPdf::30                 13883                       # What write queue length does an incoming req see
system.mem_ctrls0.wrQLenPdf::31                 13821                       # What write queue length does an incoming req see
system.mem_ctrls0.wrQLenPdf::32                 13813                       # What write queue length does an incoming req see
system.mem_ctrls0.wrQLenPdf::33                    61                       # What write queue length does an incoming req see
system.mem_ctrls0.wrQLenPdf::34                    10                       # What write queue length does an incoming req see
system.mem_ctrls0.wrQLenPdf::35                     2                       # What write queue length does an incoming req see
system.mem_ctrls0.wrQLenPdf::36                     1                       # What write queue length does an incoming req see
system.mem_ctrls0.wrQLenPdf::37                     0                       # What write queue length does an incoming req see
system.mem_ctrls0.wrQLenPdf::38                     0                       # What write queue length does an incoming req see
system.mem_ctrls0.wrQLenPdf::39                     0                       # What write queue length does an incoming req see
system.mem_ctrls0.wrQLenPdf::40                     0                       # What write queue length does an incoming req see
system.mem_ctrls0.wrQLenPdf::41                     0                       # What write queue length does an incoming req see
system.mem_ctrls0.wrQLenPdf::42                     0                       # What write queue length does an incoming req see
system.mem_ctrls0.wrQLenPdf::43                     0                       # What write queue length does an incoming req see
system.mem_ctrls0.wrQLenPdf::44                     0                       # What write queue length does an incoming req see
system.mem_ctrls0.wrQLenPdf::45                     0                       # What write queue length does an incoming req see
system.mem_ctrls0.wrQLenPdf::46                     0                       # What write queue length does an incoming req see
system.mem_ctrls0.wrQLenPdf::47                     0                       # What write queue length does an incoming req see
system.mem_ctrls0.wrQLenPdf::48                     0                       # What write queue length does an incoming req see
system.mem_ctrls0.wrQLenPdf::49                     0                       # What write queue length does an incoming req see
system.mem_ctrls0.wrQLenPdf::50                     0                       # What write queue length does an incoming req see
system.mem_ctrls0.wrQLenPdf::51                     0                       # What write queue length does an incoming req see
system.mem_ctrls0.wrQLenPdf::52                     0                       # What write queue length does an incoming req see
system.mem_ctrls0.wrQLenPdf::53                     0                       # What write queue length does an incoming req see
system.mem_ctrls0.wrQLenPdf::54                     0                       # What write queue length does an incoming req see
system.mem_ctrls0.wrQLenPdf::55                     0                       # What write queue length does an incoming req see
system.mem_ctrls0.wrQLenPdf::56                     0                       # What write queue length does an incoming req see
system.mem_ctrls0.wrQLenPdf::57                     0                       # What write queue length does an incoming req see
system.mem_ctrls0.wrQLenPdf::58                     0                       # What write queue length does an incoming req see
system.mem_ctrls0.wrQLenPdf::59                     0                       # What write queue length does an incoming req see
system.mem_ctrls0.wrQLenPdf::60                     0                       # What write queue length does an incoming req see
system.mem_ctrls0.wrQLenPdf::61                     0                       # What write queue length does an incoming req see
system.mem_ctrls0.wrQLenPdf::62                     0                       # What write queue length does an incoming req see
system.mem_ctrls0.wrQLenPdf::63                     0                       # What write queue length does an incoming req see
system.mem_ctrls0.bytesPerActivate::samples       411382                       # Bytes accessed per row activation
system.mem_ctrls0.bytesPerActivate::mean    98.272302                       # Bytes accessed per row activation
system.mem_ctrls0.bytesPerActivate::gmean    81.744240                       # Bytes accessed per row activation
system.mem_ctrls0.bytesPerActivate::stdev    98.936382                       # Bytes accessed per row activation
system.mem_ctrls0.bytesPerActivate::0-127       312846     76.05%     76.05% # Bytes accessed per row activation
system.mem_ctrls0.bytesPerActivate::128-255        75256     18.29%     94.34% # Bytes accessed per row activation
system.mem_ctrls0.bytesPerActivate::256-383        13913      3.38%     97.72% # Bytes accessed per row activation
system.mem_ctrls0.bytesPerActivate::384-511         4350      1.06%     98.78% # Bytes accessed per row activation
system.mem_ctrls0.bytesPerActivate::512-639         1424      0.35%     99.13% # Bytes accessed per row activation
system.mem_ctrls0.bytesPerActivate::640-767          864      0.21%     99.34% # Bytes accessed per row activation
system.mem_ctrls0.bytesPerActivate::768-895          607      0.15%     99.48% # Bytes accessed per row activation
system.mem_ctrls0.bytesPerActivate::896-1023          518      0.13%     99.61% # Bytes accessed per row activation
system.mem_ctrls0.bytesPerActivate::1024-1151         1604      0.39%    100.00% # Bytes accessed per row activation
system.mem_ctrls0.bytesPerActivate::total       411382                       # Bytes accessed per row activation
system.mem_ctrls0.rdPerTurnAround::samples        13811                       # Reads before turning the bus around for writes
system.mem_ctrls0.rdPerTurnAround::mean     27.971544                       # Reads before turning the bus around for writes
system.mem_ctrls0.rdPerTurnAround::stdev   246.380785                       # Reads before turning the bus around for writes
system.mem_ctrls0.rdPerTurnAround::0-1023        13810     99.99%     99.99% # Reads before turning the bus around for writes
system.mem_ctrls0.rdPerTurnAround::28672-29695            1      0.01%    100.00% # Reads before turning the bus around for writes
system.mem_ctrls0.rdPerTurnAround::total        13811                       # Reads before turning the bus around for writes
system.mem_ctrls0.wrPerTurnAround::samples        13811                       # Writes before turning the bus around for reads
system.mem_ctrls0.wrPerTurnAround::mean     17.764391                       # Writes before turning the bus around for reads
system.mem_ctrls0.wrPerTurnAround::gmean    17.745027                       # Writes before turning the bus around for reads
system.mem_ctrls0.wrPerTurnAround::stdev     0.815550                       # Writes before turning the bus around for reads
system.mem_ctrls0.wrPerTurnAround::16            2092     15.15%     15.15% # Writes before turning the bus around for reads
system.mem_ctrls0.wrPerTurnAround::17             127      0.92%     16.07% # Writes before turning the bus around for reads
system.mem_ctrls0.wrPerTurnAround::18           10676     77.30%     93.37% # Writes before turning the bus around for reads
system.mem_ctrls0.wrPerTurnAround::19             803      5.81%     99.18% # Writes before turning the bus around for reads
system.mem_ctrls0.wrPerTurnAround::20              95      0.69%     99.87% # Writes before turning the bus around for reads
system.mem_ctrls0.wrPerTurnAround::21              14      0.10%     99.97% # Writes before turning the bus around for reads
system.mem_ctrls0.wrPerTurnAround::22               3      0.02%     99.99% # Writes before turning the bus around for reads
system.mem_ctrls0.wrPerTurnAround::28               1      0.01%    100.00% # Writes before turning the bus around for reads
system.mem_ctrls0.wrPerTurnAround::total        13811                       # Writes before turning the bus around for reads
system.mem_ctrls0.totQLat                 21613165727                       # Total ticks spent queuing
system.mem_ctrls0.totMemAccLat            28856946977                       # Total ticks spent from burst creation until serviced by the DRAM
system.mem_ctrls0.totBusLat                1931675000                       # Total ticks spent in databus transfers
system.mem_ctrls0.avgQLat                    55944.10                       # Average queueing delay per DRAM burst
system.mem_ctrls0.avgBusLat                   5000.00                       # Average bus latency per DRAM burst
system.mem_ctrls0.avgMemAccLat               74694.10                       # Average memory access latency per DRAM burst
system.mem_ctrls0.avgRdBW                       17.15                       # Average DRAM read bandwidth in MiByte/s
system.mem_ctrls0.avgWrBW                       10.89                       # Average achieved write bandwidth in MiByte/s
system.mem_ctrls0.avgRdBWSys                    17.19                       # Average system read bandwidth in MiByte/s
system.mem_ctrls0.avgWrBWSys                    10.89                       # Average system write bandwidth in MiByte/s
system.mem_ctrls0.peakBW                     12800.00                       # Theoretical peak bandwidth in MiByte/s
system.mem_ctrls0.busUtil                        0.22                       # Data bus utilization in percentage
system.mem_ctrls0.busUtilRead                    0.13                       # Data bus utilization in percentage for reads
system.mem_ctrls0.busUtilWrite                   0.09                       # Data bus utilization in percentage for writes
system.mem_ctrls0.avgRdQLen                      1.00                       # Average read queue length when enqueuing
system.mem_ctrls0.avgWrQLen                     23.32                       # Average write queue length when enqueuing
system.mem_ctrls0.readRowHits                  172457                       # Number of row buffer hits during reads
system.mem_ctrls0.writeRowHits                  47840                       # Number of row buffer hits during writes
system.mem_ctrls0.readRowHitRate                44.64                       # Row buffer hit rate for reads
system.mem_ctrls0.writeRowHitRate               19.50                       # Row buffer hit rate for writes
system.mem_ctrls0.avgGap                   2278632.17                       # Average gap between requests
system.mem_ctrls0.pageHitRate                   34.87                       # Row buffer hit rate, read and write combined
system.mem_ctrls0_0.actEnergy              1481257260                       # Energy for activate commands per rank (pJ)
system.mem_ctrls0_0.preEnergy               787306905                       # Energy for precharge commands per rank (pJ)
system.mem_ctrls0_0.readEnergy             1392342840                       # Energy for read commands per rank (pJ)
system.mem_ctrls0_0.writeEnergy             646042860                       # Energy for write commands per rank (pJ)
system.mem_ctrls0_0.refreshEnergy        54794541360.000015                       # Energy for refresh commands per rank (pJ)
system.mem_ctrls0_0.actBackEnergy         27850178340                       # Energy for active background per rank (pJ)
system.mem_ctrls0_0.preBackEnergy          2631698400                       # Energy for precharge background per rank (pJ)
system.mem_ctrls0_0.actPowerDownEnergy   143034831000                       # Energy for active power-down per rank (pJ)
system.mem_ctrls0_0.prePowerDownEnergy    74994836640                       # Energy for precharge power-down per rank (pJ)
system.mem_ctrls0_0.selfRefreshEnergy    216475647195                       # Energy for self refresh per rank (pJ)
system.mem_ctrls0_0.totalEnergy          524108141310                       # Total energy per rank (pJ)
system.mem_ctrls0_0.averagePower           363.546455                       # Core power per rank (mW)
system.mem_ctrls0_0.totalIdleTime        1373543777894                       # Total Idle time Per DRAM Rank
system.mem_ctrls0_0.memoryStateTime::IDLE   4667339046                       # Time in different power states
system.mem_ctrls0_0.memoryStateTime::REF  23277908000                       # Time in different power states
system.mem_ctrls0_0.memoryStateTime::SREF 864710199694                       # Time in different power states
system.mem_ctrls0_0.memoryStateTime::PRE_PDN 195299138406                       # Time in different power states
system.mem_ctrls0_0.memoryStateTime::ACT  40027633600                       # Time in different power states
system.mem_ctrls0_0.memoryStateTime::ACT_PDN 313671607198                       # Time in different power states
system.mem_ctrls0_1.actEnergy              1456010220                       # Energy for activate commands per rank (pJ)
system.mem_ctrls0_1.preEnergy               773887785                       # Energy for precharge commands per rank (pJ)
system.mem_ctrls0_1.readEnergy             1366089060                       # Energy for read commands per rank (pJ)
system.mem_ctrls0_1.writeEnergy             634652820                       # Energy for write commands per rank (pJ)
system.mem_ctrls0_1.refreshEnergy        55629222480.000015                       # Energy for refresh commands per rank (pJ)
system.mem_ctrls0_1.actBackEnergy         28072169400                       # Energy for active background per rank (pJ)
system.mem_ctrls0_1.preBackEnergy          2654546400                       # Energy for precharge background per rank (pJ)
system.mem_ctrls0_1.actPowerDownEnergy   144614797470                       # Energy for active power-down per rank (pJ)
system.mem_ctrls0_1.prePowerDownEnergy    76946454240                       # Energy for precharge power-down per rank (pJ)
system.mem_ctrls0_1.selfRefreshEnergy    214405923465                       # Energy for self refresh per rank (pJ)
system.mem_ctrls0_1.totalEnergy          526573725930                       # Total energy per rank (pJ)
system.mem_ctrls0_1.averagePower           365.256701                       # Core power per rank (mW)
system.mem_ctrls0_1.totalIdleTime        1372837186431                       # Total Idle time Per DRAM Rank
system.mem_ctrls0_1.memoryStateTime::IDLE   4701960712                       # Time in different power states
system.mem_ctrls0_1.memoryStateTime::REF  23632062000                       # Time in different power states
system.mem_ctrls0_1.memoryStateTime::SREF 855615523194                       # Time in different power states
system.mem_ctrls0_1.memoryStateTime::PRE_PDN 200380190848                       # Time in different power states
system.mem_ctrls0_1.memoryStateTime::ACT  40186997140                       # Time in different power states
system.mem_ctrls0_1.memoryStateTime::ACT_PDN 317137092050                       # Time in different power states
system.mem_ctrls1.pwrStateResidencyTicks::UNDEFINED 191492963740944                       # Cumulative time (in ticks) in various power states
system.mem_ctrls1.bytes_read::cpu.inst            128                       # Number of bytes read from this memory
system.mem_ctrls1.bytes_read::cpu.data             64                       # Number of bytes read from this memory
system.mem_ctrls1.bytes_read::switch_cpus.inst        14144                       # Number of bytes read from this memory
system.mem_ctrls1.bytes_read::switch_cpus.data     20196480                       # Number of bytes read from this memory
system.mem_ctrls1.bytes_read::switch_cpus_1.inst          768                       # Number of bytes read from this memory
system.mem_ctrls1.bytes_read::switch_cpus_1.data      4588160                       # Number of bytes read from this memory
system.mem_ctrls1.bytes_read::total          24799744                       # Number of bytes read from this memory
system.mem_ctrls1.bytes_inst_read::cpu.inst          128                       # Number of instructions bytes read from this memory
system.mem_ctrls1.bytes_inst_read::switch_cpus.inst        14144                       # Number of instructions bytes read from this memory
system.mem_ctrls1.bytes_inst_read::switch_cpus_1.inst          768                       # Number of instructions bytes read from this memory
system.mem_ctrls1.bytes_inst_read::total        15040                       # Number of instructions bytes read from this memory
system.mem_ctrls1.bytes_written::writebacks     15717312                       # Number of bytes written to this memory
system.mem_ctrls1.bytes_written::total       15717312                       # Number of bytes written to this memory
system.mem_ctrls1.num_reads::cpu.inst               2                       # Number of read requests responded to by this memory
system.mem_ctrls1.num_reads::cpu.data               1                       # Number of read requests responded to by this memory
system.mem_ctrls1.num_reads::switch_cpus.inst          221                       # Number of read requests responded to by this memory
system.mem_ctrls1.num_reads::switch_cpus.data       315570                       # Number of read requests responded to by this memory
system.mem_ctrls1.num_reads::switch_cpus_1.inst           12                       # Number of read requests responded to by this memory
system.mem_ctrls1.num_reads::switch_cpus_1.data        71690                       # Number of read requests responded to by this memory
system.mem_ctrls1.num_reads::total             387496                       # Number of read requests responded to by this memory
system.mem_ctrls1.num_writes::writebacks       245583                       # Number of write requests responded to by this memory
system.mem_ctrls1.num_writes::total            245583                       # Number of write requests responded to by this memory
system.mem_ctrls1.bw_read::cpu.inst                89                       # Total read bandwidth from this memory (bytes/s)
system.mem_ctrls1.bw_read::cpu.data                44                       # Total read bandwidth from this memory (bytes/s)
system.mem_ctrls1.bw_read::switch_cpus.inst         9811                       # Total read bandwidth from this memory (bytes/s)
system.mem_ctrls1.bw_read::switch_cpus.data     14009244                       # Total read bandwidth from this memory (bytes/s)
system.mem_ctrls1.bw_read::switch_cpus_1.inst          533                       # Total read bandwidth from this memory (bytes/s)
system.mem_ctrls1.bw_read::switch_cpus_1.data      3182567                       # Total read bandwidth from this memory (bytes/s)
system.mem_ctrls1.bw_read::total             17202288                       # Total read bandwidth from this memory (bytes/s)
system.mem_ctrls1.bw_inst_read::cpu.inst           89                       # Instruction read bandwidth from this memory (bytes/s)
system.mem_ctrls1.bw_inst_read::switch_cpus.inst         9811                       # Instruction read bandwidth from this memory (bytes/s)
system.mem_ctrls1.bw_inst_read::switch_cpus_1.inst          533                       # Instruction read bandwidth from this memory (bytes/s)
system.mem_ctrls1.bw_inst_read::total           10432                       # Instruction read bandwidth from this memory (bytes/s)
system.mem_ctrls1.bw_write::writebacks       10902279                       # Write bandwidth from this memory (bytes/s)
system.mem_ctrls1.bw_write::total            10902279                       # Write bandwidth from this memory (bytes/s)
system.mem_ctrls1.bw_total::writebacks       10902279                       # Total bandwidth to/from this memory (bytes/s)
system.mem_ctrls1.bw_total::cpu.inst               89                       # Total bandwidth to/from this memory (bytes/s)
system.mem_ctrls1.bw_total::cpu.data               44                       # Total bandwidth to/from this memory (bytes/s)
system.mem_ctrls1.bw_total::switch_cpus.inst         9811                       # Total bandwidth to/from this memory (bytes/s)
system.mem_ctrls1.bw_total::switch_cpus.data     14009244                       # Total bandwidth to/from this memory (bytes/s)
system.mem_ctrls1.bw_total::switch_cpus_1.inst          533                       # Total bandwidth to/from this memory (bytes/s)
system.mem_ctrls1.bw_total::switch_cpus_1.data      3182567                       # Total bandwidth to/from this memory (bytes/s)
system.mem_ctrls1.bw_total::total            28104567                       # Total bandwidth to/from this memory (bytes/s)
system.mem_ctrls1.readReqs                     387496                       # Number of read requests accepted
system.mem_ctrls1.writeReqs                    245583                       # Number of write requests accepted
system.mem_ctrls1.readBursts                   387496                       # Number of DRAM read bursts, including those serviced by the write queue
system.mem_ctrls1.writeBursts                  245583                       # Number of DRAM write bursts, including those merged in the write queue
system.mem_ctrls1.bytesReadDRAM              24741248                       # Total number of bytes read from DRAM
system.mem_ctrls1.bytesReadWrQ                  58496                       # Total number of bytes read from write queue
system.mem_ctrls1.bytesWritten               15716032                       # Total number of bytes written to DRAM
system.mem_ctrls1.bytesReadSys               24799744                       # Total read bytes from the system interface side
system.mem_ctrls1.bytesWrittenSys            15717312                       # Total written bytes from the system interface side
system.mem_ctrls1.servicedByWrQ                   914                       # Number of DRAM read bursts serviced by the write queue
system.mem_ctrls1.mergedWrBursts                    0                       # Number of DRAM write bursts merged with an existing one
system.mem_ctrls1.neitherReadNorWriteReqs            0                       # Number of requests that are neither read nor write
system.mem_ctrls1.perBankRdBursts::0            25362                       # Per bank write bursts
system.mem_ctrls1.perBankRdBursts::1            24830                       # Per bank write bursts
system.mem_ctrls1.perBankRdBursts::2            25637                       # Per bank write bursts
system.mem_ctrls1.perBankRdBursts::3            24907                       # Per bank write bursts
system.mem_ctrls1.perBankRdBursts::4            22848                       # Per bank write bursts
system.mem_ctrls1.perBankRdBursts::5            23559                       # Per bank write bursts
system.mem_ctrls1.perBankRdBursts::6            23732                       # Per bank write bursts
system.mem_ctrls1.perBankRdBursts::7            24507                       # Per bank write bursts
system.mem_ctrls1.perBankRdBursts::8            24898                       # Per bank write bursts
system.mem_ctrls1.perBankRdBursts::9            23529                       # Per bank write bursts
system.mem_ctrls1.perBankRdBursts::10           24134                       # Per bank write bursts
system.mem_ctrls1.perBankRdBursts::11           23836                       # Per bank write bursts
system.mem_ctrls1.perBankRdBursts::12           22428                       # Per bank write bursts
system.mem_ctrls1.perBankRdBursts::13           23425                       # Per bank write bursts
system.mem_ctrls1.perBankRdBursts::14           23662                       # Per bank write bursts
system.mem_ctrls1.perBankRdBursts::15           25288                       # Per bank write bursts
system.mem_ctrls1.perBankWrBursts::0            16094                       # Per bank write bursts
system.mem_ctrls1.perBankWrBursts::1            15849                       # Per bank write bursts
system.mem_ctrls1.perBankWrBursts::2            16192                       # Per bank write bursts
system.mem_ctrls1.perBankWrBursts::3            15693                       # Per bank write bursts
system.mem_ctrls1.perBankWrBursts::4            14112                       # Per bank write bursts
system.mem_ctrls1.perBankWrBursts::5            15047                       # Per bank write bursts
system.mem_ctrls1.perBankWrBursts::6            15222                       # Per bank write bursts
system.mem_ctrls1.perBankWrBursts::7            15728                       # Per bank write bursts
system.mem_ctrls1.perBankWrBursts::8            15859                       # Per bank write bursts
system.mem_ctrls1.perBankWrBursts::9            14990                       # Per bank write bursts
system.mem_ctrls1.perBankWrBursts::10           15190                       # Per bank write bursts
system.mem_ctrls1.perBankWrBursts::11           15180                       # Per bank write bursts
system.mem_ctrls1.perBankWrBursts::12           14243                       # Per bank write bursts
system.mem_ctrls1.perBankWrBursts::13           14777                       # Per bank write bursts
system.mem_ctrls1.perBankWrBursts::14           15156                       # Per bank write bursts
system.mem_ctrls1.perBankWrBursts::15           16231                       # Per bank write bursts
system.mem_ctrls1.numRdRetry                        0                       # Number of times read queue was full causing retry
system.mem_ctrls1.numWrRetry                        0                       # Number of times write queue was full causing retry
system.mem_ctrls1.totGap                 1441548139203                       # Total gap between requests
system.mem_ctrls1.readPktSize::0                    0                       # Read request sizes (log2)
system.mem_ctrls1.readPktSize::1                    0                       # Read request sizes (log2)
system.mem_ctrls1.readPktSize::2                    0                       # Read request sizes (log2)
system.mem_ctrls1.readPktSize::3                    0                       # Read request sizes (log2)
system.mem_ctrls1.readPktSize::4                    0                       # Read request sizes (log2)
system.mem_ctrls1.readPktSize::5                    0                       # Read request sizes (log2)
system.mem_ctrls1.readPktSize::6               387496                       # Read request sizes (log2)
system.mem_ctrls1.writePktSize::0                   0                       # Write request sizes (log2)
system.mem_ctrls1.writePktSize::1                   0                       # Write request sizes (log2)
system.mem_ctrls1.writePktSize::2                   0                       # Write request sizes (log2)
system.mem_ctrls1.writePktSize::3                   0                       # Write request sizes (log2)
system.mem_ctrls1.writePktSize::4                   0                       # Write request sizes (log2)
system.mem_ctrls1.writePktSize::5                   0                       # Write request sizes (log2)
system.mem_ctrls1.writePktSize::6              245583                       # Write request sizes (log2)
system.mem_ctrls1.rdQLenPdf::0                 381484                       # What read queue length does an incoming req see
system.mem_ctrls1.rdQLenPdf::1                   4970                       # What read queue length does an incoming req see
system.mem_ctrls1.rdQLenPdf::2                    110                       # What read queue length does an incoming req see
system.mem_ctrls1.rdQLenPdf::3                     18                       # What read queue length does an incoming req see
system.mem_ctrls1.rdQLenPdf::4                      0                       # What read queue length does an incoming req see
system.mem_ctrls1.rdQLenPdf::5                      0                       # What read queue length does an incoming req see
system.mem_ctrls1.rdQLenPdf::6                      0                       # What read queue length does an incoming req see
system.mem_ctrls1.rdQLenPdf::7                      0                       # What read queue length does an incoming req see
system.mem_ctrls1.rdQLenPdf::8                      0                       # What read queue length does an incoming req see
system.mem_ctrls1.rdQLenPdf::9                      0                       # What read queue length does an incoming req see
system.mem_ctrls1.rdQLenPdf::10                     0                       # What read queue length does an incoming req see
system.mem_ctrls1.rdQLenPdf::11                     0                       # What read queue length does an incoming req see
system.mem_ctrls1.rdQLenPdf::12                     0                       # What read queue length does an incoming req see
system.mem_ctrls1.rdQLenPdf::13                     0                       # What read queue length does an incoming req see
system.mem_ctrls1.rdQLenPdf::14                     0                       # What read queue length does an incoming req see
system.mem_ctrls1.rdQLenPdf::15                     0                       # What read queue length does an incoming req see
system.mem_ctrls1.rdQLenPdf::16                     0                       # What read queue length does an incoming req see
system.mem_ctrls1.rdQLenPdf::17                     0                       # What read queue length does an incoming req see
system.mem_ctrls1.rdQLenPdf::18                     0                       # What read queue length does an incoming req see
system.mem_ctrls1.rdQLenPdf::19                     0                       # What read queue length does an incoming req see
system.mem_ctrls1.rdQLenPdf::20                     0                       # What read queue length does an incoming req see
system.mem_ctrls1.rdQLenPdf::21                     0                       # What read queue length does an incoming req see
system.mem_ctrls1.rdQLenPdf::22                     0                       # What read queue length does an incoming req see
system.mem_ctrls1.rdQLenPdf::23                     0                       # What read queue length does an incoming req see
system.mem_ctrls1.rdQLenPdf::24                     0                       # What read queue length does an incoming req see
system.mem_ctrls1.rdQLenPdf::25                     0                       # What read queue length does an incoming req see
system.mem_ctrls1.rdQLenPdf::26                     0                       # What read queue length does an incoming req see
system.mem_ctrls1.rdQLenPdf::27                     0                       # What read queue length does an incoming req see
system.mem_ctrls1.rdQLenPdf::28                     0                       # What read queue length does an incoming req see
system.mem_ctrls1.rdQLenPdf::29                     0                       # What read queue length does an incoming req see
system.mem_ctrls1.rdQLenPdf::30                     0                       # What read queue length does an incoming req see
system.mem_ctrls1.rdQLenPdf::31                     0                       # What read queue length does an incoming req see
system.mem_ctrls1.wrQLenPdf::0                      2                       # What write queue length does an incoming req see
system.mem_ctrls1.wrQLenPdf::1                      2                       # What write queue length does an incoming req see
system.mem_ctrls1.wrQLenPdf::2                      2                       # What write queue length does an incoming req see
system.mem_ctrls1.wrQLenPdf::3                      2                       # What write queue length does an incoming req see
system.mem_ctrls1.wrQLenPdf::4                      2                       # What write queue length does an incoming req see
system.mem_ctrls1.wrQLenPdf::5                      2                       # What write queue length does an incoming req see
system.mem_ctrls1.wrQLenPdf::6                      2                       # What write queue length does an incoming req see
system.mem_ctrls1.wrQLenPdf::7                      2                       # What write queue length does an incoming req see
system.mem_ctrls1.wrQLenPdf::8                      2                       # What write queue length does an incoming req see
system.mem_ctrls1.wrQLenPdf::9                      2                       # What write queue length does an incoming req see
system.mem_ctrls1.wrQLenPdf::10                     2                       # What write queue length does an incoming req see
system.mem_ctrls1.wrQLenPdf::11                     2                       # What write queue length does an incoming req see
system.mem_ctrls1.wrQLenPdf::12                     2                       # What write queue length does an incoming req see
system.mem_ctrls1.wrQLenPdf::13                     2                       # What write queue length does an incoming req see
system.mem_ctrls1.wrQLenPdf::14                     2                       # What write queue length does an incoming req see
system.mem_ctrls1.wrQLenPdf::15                 11557                       # What write queue length does an incoming req see
system.mem_ctrls1.wrQLenPdf::16                 11774                       # What write queue length does an incoming req see
system.mem_ctrls1.wrQLenPdf::17                 13612                       # What write queue length does an incoming req see
system.mem_ctrls1.wrQLenPdf::18                 13872                       # What write queue length does an incoming req see
system.mem_ctrls1.wrQLenPdf::19                 13918                       # What write queue length does an incoming req see
system.mem_ctrls1.wrQLenPdf::20                 13902                       # What write queue length does an incoming req see
system.mem_ctrls1.wrQLenPdf::21                 13902                       # What write queue length does an incoming req see
system.mem_ctrls1.wrQLenPdf::22                 13975                       # What write queue length does an incoming req see
system.mem_ctrls1.wrQLenPdf::23                 13973                       # What write queue length does an incoming req see
system.mem_ctrls1.wrQLenPdf::24                 13933                       # What write queue length does an incoming req see
system.mem_ctrls1.wrQLenPdf::25                 13947                       # What write queue length does an incoming req see
system.mem_ctrls1.wrQLenPdf::26                 13924                       # What write queue length does an incoming req see
system.mem_ctrls1.wrQLenPdf::27                 13913                       # What write queue length does an incoming req see
system.mem_ctrls1.wrQLenPdf::28                 13876                       # What write queue length does an incoming req see
system.mem_ctrls1.wrQLenPdf::29                 13865                       # What write queue length does an incoming req see
system.mem_ctrls1.wrQLenPdf::30                 13882                       # What write queue length does an incoming req see
system.mem_ctrls1.wrQLenPdf::31                 13834                       # What write queue length does an incoming req see
system.mem_ctrls1.wrQLenPdf::32                 13831                       # What write queue length does an incoming req see
system.mem_ctrls1.wrQLenPdf::33                    60                       # What write queue length does an incoming req see
system.mem_ctrls1.wrQLenPdf::34                     3                       # What write queue length does an incoming req see
system.mem_ctrls1.wrQLenPdf::35                     0                       # What write queue length does an incoming req see
system.mem_ctrls1.wrQLenPdf::36                     0                       # What write queue length does an incoming req see
system.mem_ctrls1.wrQLenPdf::37                     0                       # What write queue length does an incoming req see
system.mem_ctrls1.wrQLenPdf::38                     0                       # What write queue length does an incoming req see
system.mem_ctrls1.wrQLenPdf::39                     0                       # What write queue length does an incoming req see
system.mem_ctrls1.wrQLenPdf::40                     0                       # What write queue length does an incoming req see
system.mem_ctrls1.wrQLenPdf::41                     0                       # What write queue length does an incoming req see
system.mem_ctrls1.wrQLenPdf::42                     0                       # What write queue length does an incoming req see
system.mem_ctrls1.wrQLenPdf::43                     0                       # What write queue length does an incoming req see
system.mem_ctrls1.wrQLenPdf::44                     0                       # What write queue length does an incoming req see
system.mem_ctrls1.wrQLenPdf::45                     0                       # What write queue length does an incoming req see
system.mem_ctrls1.wrQLenPdf::46                     0                       # What write queue length does an incoming req see
system.mem_ctrls1.wrQLenPdf::47                     0                       # What write queue length does an incoming req see
system.mem_ctrls1.wrQLenPdf::48                     0                       # What write queue length does an incoming req see
system.mem_ctrls1.wrQLenPdf::49                     0                       # What write queue length does an incoming req see
system.mem_ctrls1.wrQLenPdf::50                     0                       # What write queue length does an incoming req see
system.mem_ctrls1.wrQLenPdf::51                     0                       # What write queue length does an incoming req see
system.mem_ctrls1.wrQLenPdf::52                     0                       # What write queue length does an incoming req see
system.mem_ctrls1.wrQLenPdf::53                     0                       # What write queue length does an incoming req see
system.mem_ctrls1.wrQLenPdf::54                     0                       # What write queue length does an incoming req see
system.mem_ctrls1.wrQLenPdf::55                     0                       # What write queue length does an incoming req see
system.mem_ctrls1.wrQLenPdf::56                     0                       # What write queue length does an incoming req see
system.mem_ctrls1.wrQLenPdf::57                     0                       # What write queue length does an incoming req see
system.mem_ctrls1.wrQLenPdf::58                     0                       # What write queue length does an incoming req see
system.mem_ctrls1.wrQLenPdf::59                     0                       # What write queue length does an incoming req see
system.mem_ctrls1.wrQLenPdf::60                     0                       # What write queue length does an incoming req see
system.mem_ctrls1.wrQLenPdf::61                     0                       # What write queue length does an incoming req see
system.mem_ctrls1.wrQLenPdf::62                     0                       # What write queue length does an incoming req see
system.mem_ctrls1.wrQLenPdf::63                     0                       # What write queue length does an incoming req see
system.mem_ctrls1.bytesPerActivate::samples       411422                       # Bytes accessed per row activation
system.mem_ctrls1.bytesPerActivate::mean    98.335237                       # Bytes accessed per row activation
system.mem_ctrls1.bytesPerActivate::gmean    81.782681                       # Bytes accessed per row activation
system.mem_ctrls1.bytesPerActivate::stdev    99.076520                       # Bytes accessed per row activation
system.mem_ctrls1.bytesPerActivate::0-127       312592     75.98%     75.98% # Bytes accessed per row activation
system.mem_ctrls1.bytesPerActivate::128-255        75692     18.40%     94.38% # Bytes accessed per row activation
system.mem_ctrls1.bytesPerActivate::256-383        13741      3.34%     97.72% # Bytes accessed per row activation
system.mem_ctrls1.bytesPerActivate::384-511         4288      1.04%     98.76% # Bytes accessed per row activation
system.mem_ctrls1.bytesPerActivate::512-639         1533      0.37%     99.13% # Bytes accessed per row activation
system.mem_ctrls1.bytesPerActivate::640-767          850      0.21%     99.34% # Bytes accessed per row activation
system.mem_ctrls1.bytesPerActivate::768-895          601      0.15%     99.48% # Bytes accessed per row activation
system.mem_ctrls1.bytesPerActivate::896-1023          499      0.12%     99.60% # Bytes accessed per row activation
system.mem_ctrls1.bytesPerActivate::1024-1151         1626      0.40%    100.00% # Bytes accessed per row activation
system.mem_ctrls1.bytesPerActivate::total       411422                       # Bytes accessed per row activation
system.mem_ctrls1.rdPerTurnAround::samples        13828                       # Reads before turning the bus around for writes
system.mem_ctrls1.rdPerTurnAround::mean     27.955670                       # Reads before turning the bus around for writes
system.mem_ctrls1.rdPerTurnAround::stdev   246.907372                       # Reads before turning the bus around for writes
system.mem_ctrls1.rdPerTurnAround::0-1023        13827     99.99%     99.99% # Reads before turning the bus around for writes
system.mem_ctrls1.rdPerTurnAround::28672-29695            1      0.01%    100.00% # Reads before turning the bus around for writes
system.mem_ctrls1.rdPerTurnAround::total        13828                       # Reads before turning the bus around for writes
system.mem_ctrls1.wrPerTurnAround::samples        13828                       # Writes before turning the bus around for reads
system.mem_ctrls1.wrPerTurnAround::mean     17.758389                       # Writes before turning the bus around for reads
system.mem_ctrls1.wrPerTurnAround::gmean    17.739200                       # Writes before turning the bus around for reads
system.mem_ctrls1.wrPerTurnAround::stdev     0.810173                       # Writes before turning the bus around for reads
system.mem_ctrls1.wrPerTurnAround::16            2113     15.28%     15.28% # Writes before turning the bus around for reads
system.mem_ctrls1.wrPerTurnAround::17             135      0.98%     16.26% # Writes before turning the bus around for reads
system.mem_ctrls1.wrPerTurnAround::18           10671     77.17%     93.43% # Writes before turning the bus around for reads
system.mem_ctrls1.wrPerTurnAround::19             821      5.94%     99.36% # Writes before turning the bus around for reads
system.mem_ctrls1.wrPerTurnAround::20              68      0.49%     99.86% # Writes before turning the bus around for reads
system.mem_ctrls1.wrPerTurnAround::21              18      0.13%     99.99% # Writes before turning the bus around for reads
system.mem_ctrls1.wrPerTurnAround::22               1      0.01%     99.99% # Writes before turning the bus around for reads
system.mem_ctrls1.wrPerTurnAround::23               1      0.01%    100.00% # Writes before turning the bus around for reads
system.mem_ctrls1.wrPerTurnAround::total        13828                       # Writes before turning the bus around for reads
system.mem_ctrls1.totQLat                 21577793046                       # Total ticks spent queuing
system.mem_ctrls1.totMemAccLat            28826205546                       # Total ticks spent from burst creation until serviced by the DRAM
system.mem_ctrls1.totBusLat                1932910000                       # Total ticks spent in databus transfers
system.mem_ctrls1.avgQLat                    55816.86                       # Average queueing delay per DRAM burst
system.mem_ctrls1.avgBusLat                   5000.00                       # Average bus latency per DRAM burst
system.mem_ctrls1.avgMemAccLat               74566.86                       # Average memory access latency per DRAM burst
system.mem_ctrls1.avgRdBW                       17.16                       # Average DRAM read bandwidth in MiByte/s
system.mem_ctrls1.avgWrBW                       10.90                       # Average achieved write bandwidth in MiByte/s
system.mem_ctrls1.avgRdBWSys                    17.20                       # Average system read bandwidth in MiByte/s
system.mem_ctrls1.avgWrBWSys                    10.90                       # Average system write bandwidth in MiByte/s
system.mem_ctrls1.peakBW                     12800.00                       # Theoretical peak bandwidth in MiByte/s
system.mem_ctrls1.busUtil                        0.22                       # Data bus utilization in percentage
system.mem_ctrls1.busUtilRead                    0.13                       # Data bus utilization in percentage for reads
system.mem_ctrls1.busUtilWrite                   0.09                       # Data bus utilization in percentage for writes
system.mem_ctrls1.avgRdQLen                      1.00                       # Average read queue length when enqueuing
system.mem_ctrls1.avgWrQLen                     23.53                       # Average write queue length when enqueuing
system.mem_ctrls1.readRowHits                  172678                       # Number of row buffer hits during reads
system.mem_ctrls1.writeRowHits                  48045                       # Number of row buffer hits during writes
system.mem_ctrls1.readRowHitRate                44.67                       # Row buffer hit rate for reads
system.mem_ctrls1.writeRowHitRate               19.56                       # Row buffer hit rate for writes
system.mem_ctrls1.avgGap                   2277043.05                       # Average gap between requests
system.mem_ctrls1.pageHitRate                   34.92                       # Row buffer hit rate, read and write combined
system.mem_ctrls1_0.actEnergy              1481992680                       # Energy for activate commands per rank (pJ)
system.mem_ctrls1_0.preEnergy               787697790                       # Energy for precharge commands per rank (pJ)
system.mem_ctrls1_0.readEnergy             1395027480                       # Energy for read commands per rank (pJ)
system.mem_ctrls1_0.writeEnergy             646951140                       # Energy for write commands per rank (pJ)
system.mem_ctrls1_0.refreshEnergy        54736765200.000015                       # Energy for refresh commands per rank (pJ)
system.mem_ctrls1_0.actBackEnergy         27912282120                       # Energy for active background per rank (pJ)
system.mem_ctrls1_0.preBackEnergy          2620479360                       # Energy for precharge background per rank (pJ)
system.mem_ctrls1_0.actPowerDownEnergy   142900003770                       # Energy for active power-down per rank (pJ)
system.mem_ctrls1_0.prePowerDownEnergy    74760144000                       # Energy for precharge power-down per rank (pJ)
system.mem_ctrls1_0.selfRefreshEnergy    216672994725                       # Energy for self refresh per rank (pJ)
system.mem_ctrls1_0.totalEnergy          523935027975                       # Total energy per rank (pJ)
system.mem_ctrls1_0.averagePower           363.426377                       # Core power per rank (mW)
system.mem_ctrls1_0.totalIdleTime        1373350943518                       # Total Idle time Per DRAM Rank
system.mem_ctrls1_0.memoryStateTime::IDLE   4641449301                       # Time in different power states
system.mem_ctrls1_0.memoryStateTime::REF  23253252000                       # Time in different power states
system.mem_ctrls1_0.memoryStateTime::SREF 865507358231                       # Time in different power states
system.mem_ctrls1_0.memoryStateTime::PRE_PDN 194687877097                       # Time in different power states
system.mem_ctrls1_0.memoryStateTime::ACT  40186255231                       # Time in different power states
system.mem_ctrls1_0.memoryStateTime::ACT_PDN 313377634084                       # Time in different power states
system.mem_ctrls1_1.actEnergy              1455560400                       # Energy for activate commands per rank (pJ)
system.mem_ctrls1_1.preEnergy               773648700                       # Energy for precharge commands per rank (pJ)
system.mem_ctrls1_1.readEnergy             1365168000                       # Energy for read commands per rank (pJ)
system.mem_ctrls1_1.writeEnergy             634887720                       # Energy for write commands per rank (pJ)
system.mem_ctrls1_1.refreshEnergy        55487855280.000015                       # Energy for refresh commands per rank (pJ)
system.mem_ctrls1_1.actBackEnergy         27853186800                       # Energy for active background per rank (pJ)
system.mem_ctrls1_1.preBackEnergy          2647907040                       # Energy for precharge background per rank (pJ)
system.mem_ctrls1_1.actPowerDownEnergy   144800989110                       # Energy for active power-down per rank (pJ)
system.mem_ctrls1_1.prePowerDownEnergy    76405923840                       # Energy for precharge power-down per rank (pJ)
system.mem_ctrls1_1.selfRefreshEnergy    214743250950                       # Energy for self refresh per rank (pJ)
system.mem_ctrls1_1.totalEnergy          526189833510                       # Total energy per rank (pJ)
system.mem_ctrls1_1.averagePower           364.990415                       # Core power per rank (mW)
system.mem_ctrls1_1.totalIdleTime        1373326969485                       # Total Idle time Per DRAM Rank
system.mem_ctrls1_1.memoryStateTime::IDLE   4692028276                       # Time in different power states
system.mem_ctrls1_1.memoryStateTime::REF  23571908000                       # Time in different power states
system.mem_ctrls1_1.memoryStateTime::SREF 857109100444                       # Time in different power states
system.mem_ctrls1_1.memoryStateTime::PRE_PDN 198973073997                       # Time in different power states
system.mem_ctrls1_1.memoryStateTime::ACT  39761084700                       # Time in different power states
system.mem_ctrls1_1.memoryStateTime::ACT_PDN 317546630527                       # Time in different power states
system.pwrStateResidencyTicks::UNDEFINED 191492963740944                       # Cumulative time (in ticks) in various power states
system.cpu.branchPred.lookups                       4                       # Number of BP lookups
system.cpu.branchPred.condPredicted                 2                       # Number of conditional branches predicted
system.cpu.branchPred.condIncorrect                 2                       # Number of conditional branches incorrect
system.cpu.branchPred.BTBLookups                    2                       # Number of BTB lookups
system.cpu.branchPred.BTBHits                       0                       # Number of BTB hits
system.cpu.branchPred.BTBCorrect                    0                       # Number of correct BTB predictions (this stat may not work properly.
system.cpu.branchPred.BTBHitPct              0.000000                       # BTB Hit Percentage
system.cpu.branchPred.usedRAS                       0                       # Number of times the RAS was used to get a target.
system.cpu.branchPred.RASInCorrect                  0                       # Number of incorrect RAS predictions.
system.cpu.branchPred.indirectLookups               0                       # Number of indirect predictor lookups.
system.cpu.branchPred.indirectHits                  0                       # Number of indirect target hits.
system.cpu.branchPred.indirectMisses                0                       # Number of indirect misses.
system.cpu.branchPredindirectMispredicted            0                       # Number of mispredicted indirect branches.
system.cpu_voltage_domain.voltage                   1                       # Voltage in Volts
system.cpu_clk_domain.clock                       333                       # Clock period in ticks
system.cpu.dtb.fetch_hits                           0                       # ITB hits
system.cpu.dtb.fetch_misses                         0                       # ITB misses
system.cpu.dtb.fetch_acv                            0                       # ITB acv
system.cpu.dtb.fetch_accesses                       0                       # ITB accesses
system.cpu.dtb.read_hits                            6                       # DTB read hits
system.cpu.dtb.read_misses                          0                       # DTB read misses
system.cpu.dtb.read_acv                             0                       # DTB read access violations
system.cpu.dtb.read_accesses                        6                       # DTB read accesses
system.cpu.dtb.write_hits                           1                       # DTB write hits
system.cpu.dtb.write_misses                         0                       # DTB write misses
system.cpu.dtb.write_acv                            0                       # DTB write access violations
system.cpu.dtb.write_accesses                       1                       # DTB write accesses
system.cpu.dtb.data_hits                            7                       # DTB hits
system.cpu.dtb.data_misses                          0                       # DTB misses
system.cpu.dtb.data_acv                             0                       # DTB access violations
system.cpu.dtb.data_accesses                        7                       # DTB accesses
system.cpu.itb.fetch_hits                           7                       # ITB hits
system.cpu.itb.fetch_misses                         0                       # ITB misses
system.cpu.itb.fetch_acv                            0                       # ITB acv
system.cpu.itb.fetch_accesses                       7                       # ITB accesses
system.cpu.itb.read_hits                            0                       # DTB read hits
system.cpu.itb.read_misses                          0                       # DTB read misses
system.cpu.itb.read_acv                             0                       # DTB read access violations
system.cpu.itb.read_accesses                        0                       # DTB read accesses
system.cpu.itb.write_hits                           0                       # DTB write hits
system.cpu.itb.write_misses                         0                       # DTB write misses
system.cpu.itb.write_acv                            0                       # DTB write access violations
system.cpu.itb.write_accesses                       0                       # DTB write accesses
system.cpu.itb.data_hits                            0                       # DTB hits
system.cpu.itb.data_misses                          0                       # DTB misses
system.cpu.itb.data_acv                             0                       # DTB access violations
system.cpu.itb.data_accesses                        0                       # DTB accesses
system.cpu.workload.num_syscalls                    0                       # Number of system calls
system.cpu.pwrStateResidencyTicks::ON    1441653825944                       # Cumulative time (in ticks) in various power states
system.cpu.numCycles                             1458                       # number of cpu cycles simulated
system.cpu.numWorkItemsStarted                      0                       # number of work items this cpu started
system.cpu.numWorkItemsCompleted                    0                       # number of work items this cpu completed
system.cpu.fetch.icacheStallCycles                 50                       # Number of cycles fetch is stalled on an Icache miss
system.cpu.fetch.Insts                             19                       # Number of instructions fetch has processed
system.cpu.fetch.Branches                           4                       # Number of branches that fetch encountered
system.cpu.fetch.Cycles                             4                       # Number of cycles fetch has run and was not squashing or blocked
system.cpu.fetch.SquashCycles                       7                       # Number of cycles fetch has spent squashing
system.cpu.fetch.PendingDrainCycles                 6                       # Number of cycles fetch has spent waiting on pipes to drain
system.cpu.fetch.CacheLines                         7                       # Number of cache lines fetched
system.cpu.fetch.IcacheSquashes                     4                       # Number of outstanding Icache misses that were squashed
system.cpu.fetch.rateDist::samples                 63                       # Number of instructions fetched each cycle (Total)
system.cpu.fetch.rateDist::mean              0.301587                       # Number of instructions fetched each cycle (Total)
system.cpu.fetch.rateDist::stdev             1.432738                       # Number of instructions fetched each cycle (Total)
system.cpu.fetch.rateDist::underflows               0      0.00%      0.00% # Number of instructions fetched each cycle (Total)
system.cpu.fetch.rateDist::0                       59     93.65%     93.65% # Number of instructions fetched each cycle (Total)
system.cpu.fetch.rateDist::1                        1      1.59%     95.24% # Number of instructions fetched each cycle (Total)
system.cpu.fetch.rateDist::2                        1      1.59%     96.83% # Number of instructions fetched each cycle (Total)
system.cpu.fetch.rateDist::3                        0      0.00%     96.83% # Number of instructions fetched each cycle (Total)
system.cpu.fetch.rateDist::4                        0      0.00%     96.83% # Number of instructions fetched each cycle (Total)
system.cpu.fetch.rateDist::5                        0      0.00%     96.83% # Number of instructions fetched each cycle (Total)
system.cpu.fetch.rateDist::6                        0      0.00%     96.83% # Number of instructions fetched each cycle (Total)
[...]
system.switch_cpus_1.iq.int_inst_queue_writes    563001659                       # Number of integer instruction queue writes
system.switch_cpus_1.iq.int_inst_queue_wakeup_accesses    317627154                       # Number of integer instruction queue wakeup accesses
system.switch_cpus_1.iq.fp_inst_queue_reads          222                       # Number of floating instruction queue reads
system.switch_cpus_1.iq.fp_inst_queue_writes          177                       # Number of floating instruction queue writes
system.switch_cpus_1.iq.fp_inst_queue_wakeup_accesses          101                       # Number of floating instruction queue wakeup accesses
system.switch_cpus_1.iq.int_alu_accesses    342798903                       # Number of integer alu accesses
system.switch_cpus_1.iq.fp_alu_accesses           111                       # Number of floating point alu accesses
system.switch_cpus_1.iew.lsq.thread0.forwLoads      3736391                       # Number of loads that had data forwarded from stores
system.switch_cpus_1.iew.lsq.thread0.invAddrLoads            0                       # Number of loads ignored due to an invalid address
system.switch_cpus_1.iew.lsq.thread0.squashedLoads     43320181                       # Number of loads squashed
system.switch_cpus_1.iew.lsq.thread0.ignoredResponses        25061                       # Number of memory responses ignored because the instruction is squashed
system.switch_cpus_1.iew.lsq.thread0.memOrderViolation        13930                       # Number of memory ordering violations
system.switch_cpus_1.iew.lsq.thread0.squashedStores     13477046                       # Number of stores squashed
system.switch_cpus_1.iew.lsq.thread0.invAddrSwpfs            0                       # Number of software prefetches ignored due to an invalid address
system.switch_cpus_1.iew.lsq.thread0.blockedLoads            0                       # Number of blocked loads due to partial load-store forwarding
system.switch_cpus_1.iew.lsq.thread0.rescheduledLoads            0                       # Number of loads that were rescheduled
system.switch_cpus_1.iew.lsq.thread0.cacheBlocked      6485530                       # Number of times an access to memory failed due to the cache being blocked
system.switch_cpus_1.iew.iewIdleCycles              0                       # Number of cycles IEW is idle
system.switch_cpus_1.iew.iewSquashCycles      3295077                       # Number of cycles IEW is squashing
system.switch_cpus_1.iew.iewBlockCycles      64323339                       # Number of cycles IEW is blocking
system.switch_cpus_1.iew.iewUnblockCycles     22003569                       # Number of cycles IEW is unblocking
system.switch_cpus_1.iew.iewDispatchedInsts    382189685                       # Number of instructions dispatched to IQ
system.switch_cpus_1.iew.iewDispSquashedInsts       968247                       # Number of squashed instructions skipped by dispatch
system.switch_cpus_1.iew.iewDispLoadInsts     92752929                       # Number of dispatched load instructions
system.switch_cpus_1.iew.iewDispStoreInsts     27542534                       # Number of dispatched store instructions
system.switch_cpus_1.iew.iewDispNonSpecInsts            0                       # Number of dispatched non-speculative instructions
system.switch_cpus_1.iew.iewIQFullEvents       237336                       # Number of times the IQ has become full, causing a stall
system.switch_cpus_1.iew.iewLSQFullEvents     21604571                       # Number of times the LSQ has become full, causing a stall
system.switch_cpus_1.iew.memOrderViolationEvents        13930                       # Number of memory order violations
system.switch_cpus_1.iew.predictedTakenIncorrect      1689921                       # Number of branches that were predicted taken incorrectly
system.switch_cpus_1.iew.predictedNotTakenIncorrect      1803534                       # Number of branches that were predicted not taken incorrectly
system.switch_cpus_1.iew.branchMispredicts      3493455                       # Number of branch mispredicts detected at execute
system.switch_cpus_1.iew.iewExecutedInsts    331999814                       # Number of executed instructions
system.switch_cpus_1.iew.iewExecLoadInsts     87393683                       # Number of load instructions executed
system.switch_cpus_1.iew.iewExecSquashedInsts      6244403                       # Number of squashed instructions skipped in execute
system.switch_cpus_1.iew.exec_swp                   0                       # number of swp insts executed
system.switch_cpus_1.iew.exec_nop              695239                       # number of nop insts executed
system.switch_cpus_1.iew.exec_refs          108383980                       # number of memory reference insts executed
system.switch_cpus_1.iew.exec_branches       38601062                       # Number of branches executed
system.switch_cpus_1.iew.exec_stores         20990297                       # Number of stores executed
system.switch_cpus_1.iew.exec_rate           1.194241                       # Inst execution rate
system.switch_cpus_1.iew.wb_sent            321191692                       # cumulative count of insts sent to commit
system.switch_cpus_1.iew.wb_count           317627255                       # cumulative count of insts written-back
system.switch_cpus_1.iew.wb_producers       206530874                       # num instructions producing a value
system.switch_cpus_1.iew.wb_consumers       271434302                       # num instructions consuming a value
system.switch_cpus_1.iew.wb_rate             1.142541                       # insts written-back per cycle
system.switch_cpus_1.iew.wb_fanout           0.760887                       # average fanout of values written-back
system.switch_cpus_1.commit.commitSquashedInsts    172506407                       # The number of squashed insts skipped by commit
system.switch_cpus_1.commit.branchMispredicts      2849061                       # The number of times a branch was mispredicted
system.switch_cpus_1.commit.committed_per_cycle::samples    253987168                       # Number of insts commited each cycle
system.switch_cpus_1.commit.committed_per_cycle::mean     0.789563                       # Number of insts commited each cycle
system.switch_cpus_1.commit.committed_per_cycle::stdev     2.011697                       # Number of insts commited each cycle
system.switch_cpus_1.commit.committed_per_cycle::underflows            0      0.00%      0.00% # Number of insts commited each cycle
system.switch_cpus_1.commit.committed_per_cycle::0    200127994     78.79%     78.79% # Number of insts commited each cycle
system.switch_cpus_1.commit.committed_per_cycle::1     17133273      6.75%     85.54% # Number of insts commited each cycle
system.switch_cpus_1.commit.committed_per_cycle::2     11041538      4.35%     89.89% # Number of insts commited each cycle
system.switch_cpus_1.commit.committed_per_cycle::3      4948917      1.95%     91.84% # Number of insts commited each cycle
system.switch_cpus_1.commit.committed_per_cycle::4      2521206      0.99%     92.83% # Number of insts commited each cycle
system.switch_cpus_1.commit.committed_per_cycle::5      1894955      0.75%     93.57% # Number of insts commited each cycle
system.switch_cpus_1.commit.committed_per_cycle::6      1394508      0.55%     94.12% # Number of insts commited each cycle
system.switch_cpus_1.commit.committed_per_cycle::7       849031      0.33%     94.46% # Number of insts commited each cycle
system.switch_cpus_1.commit.committed_per_cycle::8     14075746      5.54%    100.00% # Number of insts commited each cycle
system.switch_cpus_1.commit.committed_per_cycle::overflows            0      0.00%    100.00% # Number of insts commited each cycle
system.switch_cpus_1.commit.committed_per_cycle::min_value            0                       # Number of insts commited each cycle
system.switch_cpus_1.commit.committed_per_cycle::max_value            8                       # Number of insts commited each cycle
system.switch_cpus_1.commit.committed_per_cycle::total    253987168                       # Number of insts commited each cycle
system.switch_cpus_1.commit.committedInsts    200538932                       # Number of instructions committed
system.switch_cpus_1.commit.committedOps    200538932                       # Number of ops (including micro ops) committed
system.switch_cpus_1.commit.swp_count               0                       # Number of s/w prefetches committed
system.switch_cpus_1.commit.refs             63498195                       # Number of memory references committed
system.switch_cpus_1.commit.loads            49432720                       # Number of loads committed
system.switch_cpus_1.commit.membars                 0                       # Number of memory barriers committed
system.switch_cpus_1.commit.branches         24329166                       # Number of branches committed
system.switch_cpus_1.commit.fp_insts               91                       # Number of committed floating point instructions.
system.switch_cpus_1.commit.int_insts       197997126                       # Number of committed integer instructions.
system.switch_cpus_1.commit.function_calls       749984                       # Number of function calls committed.
system.switch_cpus_1.commit.op_class_0::No_OpClass       538941      0.27%      0.27% # Class of committed instruction
system.switch_cpus_1.commit.op_class_0::IntAlu    136501742     68.07%     68.34% # Class of committed instruction
system.switch_cpus_1.commit.op_class_0::IntMult            0      0.00%     68.34% # Class of committed instruction
system.switch_cpus_1.commit.op_class_0::IntDiv            0      0.00%     68.34% # Class of committed instruction
system.switch_cpus_1.commit.op_class_0::FloatAdd           30      0.00%     68.34% # Class of committed instruction
system.switch_cpus_1.commit.op_class_0::FloatCmp            0      0.00%     68.34% # Class of committed instruction
system.switch_cpus_1.commit.op_class_0::FloatCvt           18      0.00%     68.34% # Class of committed instruction
system.switch_cpus_1.commit.op_class_0::FloatMult            0      0.00%     68.34% # Class of committed instruction
system.switch_cpus_1.commit.op_class_0::FloatMultAcc            0      0.00%     68.34% # Class of committed instruction
system.switch_cpus_1.commit.op_class_0::FloatDiv            6      0.00%     68.34% # Class of committed instruction
system.switch_cpus_1.commit.op_class_0::FloatMisc            0      0.00%     68.34% # Class of committed instruction
system.switch_cpus_1.commit.op_class_0::FloatSqrt            0      0.00%     68.34% # Class of committed instruction
system.switch_cpus_1.commit.op_class_0::SimdAdd            0      0.00%     68.34% # Class of committed instruction
system.switch_cpus_1.commit.op_class_0::SimdAddAcc            0      0.00%     68.34% # Class of committed instruction
system.switch_cpus_1.commit.op_class_0::SimdAlu            0      0.00%     68.34% # Class of committed instruction
system.switch_cpus_1.commit.op_class_0::SimdCmp            0      0.00%     68.34% # Class of committed instruction
system.switch_cpus_1.commit.op_class_0::SimdCvt            0      0.00%     68.34% # Class of committed instruction
system.switch_cpus_1.commit.op_class_0::SimdMisc            0      0.00%     68.34% # Class of committed instruction
system.switch_cpus_1.commit.op_class_0::SimdMult            0      0.00%     68.34% # Class of committed instruction
system.switch_cpus_1.commit.op_class_0::SimdMultAcc            0      0.00%     68.34% # Class of committed instruction
system.switch_cpus_1.commit.op_class_0::SimdShift            0      0.00%     68.34% # Class of committed instruction
system.switch_cpus_1.commit.op_class_0::SimdShiftAcc            0      0.00%     68.34% # Class of committed instruction
system.switch_cpus_1.commit.op_class_0::SimdSqrt            0      0.00%     68.34% # Class of committed instruction
system.switch_cpus_1.commit.op_class_0::SimdFloatAdd            0      0.00%     68.34% # Class of committed instruction
system.switch_cpus_1.commit.op_class_0::SimdFloatAlu            0      0.00%     68.34% # Class of committed instruction
system.switch_cpus_1.commit.op_class_0::SimdFloatCmp            0      0.00%     68.34% # Class of committed instruction
system.switch_cpus_1.commit.op_class_0::SimdFloatCvt            0      0.00%     68.34% # Class of committed instruction
system.switch_cpus_1.commit.op_class_0::SimdFloatDiv            0      0.00%     68.34% # Class of committed instruction
system.switch_cpus_1.commit.op_class_0::SimdFloatMisc            0      0.00%     68.34% # Class of committed instruction
system.switch_cpus_1.commit.op_class_0::SimdFloatMult            0      0.00%     68.34% # Class of committed instruction
system.switch_cpus_1.commit.op_class_0::SimdFloatMultAcc            0      0.00%     68.34% # Class of committed instruction
system.switch_cpus_1.commit.op_class_0::SimdFloatSqrt            0      0.00%     68.34% # Class of committed instruction
system.switch_cpus_1.commit.op_class_0::MemRead     49432701     24.65%     92.99% # Class of committed instruction
system.switch_cpus_1.commit.op_class_0::MemWrite     14065457      7.01%    100.00% # Class of committed instruction
system.switch_cpus_1.commit.op_class_0::FloatMemRead           19      0.00%    100.00% # Class of committed instruction
system.switch_cpus_1.commit.op_class_0::FloatMemWrite           18      0.00%    100.00% # Class of committed instruction
system.switch_cpus_1.commit.op_class_0::IprAccess            0      0.00%    100.00% # Class of committed instruction
system.switch_cpus_1.commit.op_class_0::InstPrefetch            0      0.00%    100.00% # Class of committed instruction
system.switch_cpus_1.commit.op_class_0::total    200538932                       # Class of committed instruction
system.switch_cpus_1.commit.bw_lim_events     14075746                       # number cycles where commit BW limit reached
system.switch_cpus_1.rob.rob_reads          607301137                       # The number of ROB reads
system.switch_cpus_1.rob.rob_writes         770089205                       # The number of ROB writes
system.switch_cpus_1.timesIdled                   350                       # Number of times that the entire CPU went into an idle state and unscheduled itself
system.switch_cpus_1.idleCycles                 44770                       # Total number of cycles that the CPU has spent unscheduled due to idling
system.switch_cpus_1.committedInsts         200000003                       # Number of Instructions Simulated
system.switch_cpus_1.committedOps           200000003                       # Number of Ops (including micro ops) Simulated
system.switch_cpus_1.cpi                     1.390003                       # CPI: Cycles Per Instruction
system.switch_cpus_1.cpi_total               1.390003                       # CPI: Total CPI of All Threads
system.switch_cpus_1.ipc                     0.719423                       # IPC: Instructions Per Cycle
system.switch_cpus_1.ipc_total               0.719423                       # IPC: Total IPC of All Threads
system.switch_cpus_1.int_regfile_reads      451768044                       # number of integer regfile reads
system.switch_cpus_1.int_regfile_writes     261558470                       # number of integer regfile writes
system.switch_cpus_1.fp_regfile_reads              63                       # number of floating regfile reads
system.switch_cpus_1.fp_regfile_writes            103                       # number of floating regfile writes
system.switch_cpus_1.misc_regfile_reads            12                       # number of misc regfile reads
system.switch_cpus_1.misc_regfile_writes            6                       # number of misc regfile writes
system.tol3bus.snoop_filter.tot_requests     15148923                       # Total number of requests made to the snoop filter.
system.tol3bus.snoop_filter.hit_single_requests      7572300                       # Number of requests hitting in the snoop filter with a single holder of the requested data.
system.tol3bus.snoop_filter.hit_multi_requests            0                       # Number of requests hitting in the snoop filter with multiple (>1) holders of the requested data.
system.tol3bus.snoop_filter.tot_snoops           2484                       # Total number of snoops made to the snoop filter.
system.tol3bus.snoop_filter.hit_single_snoops         2484                       # Number of snoops hitting in the snoop filter with a single holder of the requested data.
system.tol3bus.snoop_filter.hit_multi_snoops            0                       # Number of snoops hitting in the snoop filter with multiple (>1) holders of the requested data.
system.tol3bus.pwrStateResidencyTicks::UNDEFINED 191492963740944                       # Cumulative time (in ticks) in various power states
system.tol3bus.trans_dist::ReadResp           5401219                       # Transaction distribution
system.tol3bus.trans_dist::WritebackDirty      4424858                       # Transaction distribution
system.tol3bus.trans_dist::CleanEvict         3856887                       # Transaction distribution
system.tol3bus.trans_dist::UpgradeReq               4                       # Transaction distribution
system.tol3bus.trans_dist::UpgradeResp              4                       # Transaction distribution
system.tol3bus.trans_dist::ReadExReq          2175404                       # Transaction distribution
system.tol3bus.trans_dist::ReadExResp         2175404                       # Transaction distribution
system.tol3bus.trans_dist::ReadSharedReq      5401219                       # Transaction distribution
system.tol3bus.pkt_count_system.cpu.l2.mem_side::system.l3.cpu_side     22725550                       # Packet count per connected master and slave (bytes)
system.tol3bus.pkt_size_system.cpu.l2.mem_side::system.l3.cpu_side    736673792                       # Cumulative packet size per connected master and slave (bytes)
system.tol3bus.snoops                          709449                       # Total snoops (count)
system.tol3bus.snoopTraffic                  31420992                       # Total snoop traffic (bytes)
system.tol3bus.snoop_fanout::samples          8286076                       # Request fanout histogram
system.tol3bus.snoop_fanout::mean            0.000300                       # Request fanout histogram
system.tol3bus.snoop_fanout::stdev           0.017312                       # Request fanout histogram
system.tol3bus.snoop_fanout::underflows             0      0.00%      0.00% # Request fanout histogram
system.tol3bus.snoop_fanout::0                8283592     99.97%     99.97% # Request fanout histogram
system.tol3bus.snoop_fanout::1                   2484      0.03%    100.00% # Request fanout histogram
system.tol3bus.snoop_fanout::overflows              0      0.00%    100.00% # Request fanout histogram
system.tol3bus.snoop_fanout::min_value              0                       # Request fanout histogram
system.tol3bus.snoop_fanout::max_value              1                       # Request fanout histogram
system.tol3bus.snoop_fanout::total            8286076                       # Request fanout histogram
system.tol3bus.reqLayer0.occupancy         6354581724                       # Layer occupancy (ticks)
system.tol3bus.reqLayer0.utilization              0.4                       # Layer utilization (%)
system.tol3bus.respLayer0.occupancy        5046032250                       # Layer occupancy (ticks)
system.tol3bus.respLayer0.utilization             0.4                       # Layer utilization (%)

---------- End Simulation Statistics   ----------
