
---------- Begin Simulation Statistics ----------
sim_seconds                                  1.492290                       # Number of seconds simulated
sim_ticks                                1492290393156                       # Number of ticks simulated
final_tick                               34795668317517                       # Number of ticks from beginning of simulation (restored from checkpoints and never reset)
sim_freq                                 1000000000000                       # Frequency of simulated ticks
host_inst_rate                                 567633                       # Simulator instruction rate (inst/s)
host_op_rate                                   567633                       # Simulator op (including micro ops) rate (op/s)
host_tick_rate                              705894843                       # Simulator tick rate (ticks/s)
host_mem_usage                                2567140                       # Number of bytes of host memory used
host_seconds                                  2114.04                       # Real time elapsed on the host
sim_insts                                  1200000009                       # Number of instructions simulated
sim_ops                                    1200000009                       # Number of ops (including micro ops) simulated
system.voltage_domain.voltage                       1                       # Voltage in Volts
system.clk_domain.clock                          1000                       # Clock period in ticks
system.mem_ctrls0.pwrStateResidencyTicks::UNDEFINED 34795668317517                       # Cumulative time (in ticks) in various power states
system.mem_ctrls0.bytes_read::cpu.inst            128                       # Number of bytes read from this memory
system.mem_ctrls0.bytes_read::cpu.data            192                       # Number of bytes read from this memory
system.mem_ctrls0.bytes_read::switch_cpus.inst         8064                       # Number of bytes read from this memory
system.mem_ctrls0.bytes_read::switch_cpus.data     85918016                       # Number of bytes read from this memory
system.mem_ctrls0.bytes_read::switch_cpus_1.inst           64                       # Number of bytes read from this memory
system.mem_ctrls0.bytes_read::switch_cpus_1.data     17608256                       # Number of bytes read from this memory
system.mem_ctrls0.bytes_read::total         103534720                       # Number of bytes read from this memory
system.mem_ctrls0.bytes_inst_read::cpu.inst          128                       # Number of instructions bytes read from this memory
system.mem_ctrls0.bytes_inst_read::switch_cpus.inst         8064                       # Number of instructions bytes read from this memory
system.mem_ctrls0.bytes_inst_read::switch_cpus_1.inst           64                       # Number of instructions bytes read from this memory
system.mem_ctrls0.bytes_inst_read::total         8256                       # Number of instructions bytes read from this memory
system.mem_ctrls0.bytes_written::writebacks     35006208                       # Number of bytes written to this memory
system.mem_ctrls0.bytes_written::total       35006208                       # Number of bytes written to this memory
system.mem_ctrls0.num_reads::cpu.inst               2                       # Number of read requests responded to by this memory
system.mem_ctrls0.num_reads::cpu.data               3                       # Number of read requests responded to by this memory
system.mem_ctrls0.num_reads::switch_cpus.inst          126                       # Number of read requests responded to by this memory
system.mem_ctrls0.num_reads::switch_cpus.data      1342469                       # Number of read requests responded to by this memory
system.mem_ctrls0.num_reads::switch_cpus_1.inst            1                       # Number of read requests responded to by this memory
system.mem_ctrls0.num_reads::switch_cpus_1.data       275129                       # Number of read requests responded to by this memory
system.mem_ctrls0.num_reads::total            1617730                       # Number of read requests responded to by this memory
system.mem_ctrls0.num_writes::writebacks       546972                       # Number of write requests responded to by this memory
system.mem_ctrls0.num_writes::total            546972                       # Number of write requests responded to by this memory
system.mem_ctrls0.bw_read::cpu.inst                86                       # Total read bandwidth from this memory (bytes/s)
system.mem_ctrls0.bw_read::cpu.data               129                       # Total read bandwidth from this memory (bytes/s)
system.mem_ctrls0.bw_read::switch_cpus.inst         5404                       # Total read bandwidth from this memory (bytes/s)
system.mem_ctrls0.bw_read::switch_cpus.data     57574596                       # Total read bandwidth from this memory (bytes/s)
system.mem_ctrls0.bw_read::switch_cpus_1.inst           43                       # Total read bandwidth from this memory (bytes/s)
system.mem_ctrls0.bw_read::switch_cpus_1.data     11799484                       # Total read bandwidth from this memory (bytes/s)
system.mem_ctrls0.bw_read::total             69379740                       # Total read bandwidth from this memory (bytes/s)
system.mem_ctrls0.bw_inst_read::cpu.inst           86                       # Instruction read bandwidth from this memory (bytes/s)
system.mem_ctrls0.bw_inst_read::switch_cpus.inst         5404                       # Instruction read bandwidth from this memory (bytes/s)
system.mem_ctrls0.bw_inst_read::switch_cpus_1.inst           43                       # Instruction read bandwidth from this memory (bytes/s)
system.mem_ctrls0.bw_inst_read::total            5532                       # Instruction read bandwidth from this memory (bytes/s)
system.mem_ctrls0.bw_write::writebacks       23458040                       # Write bandwidth from this memory (bytes/s)
system.mem_ctrls0.bw_write::total            23458040                       # Write bandwidth from this memory (bytes/s)
system.mem_ctrls0.bw_total::writebacks       23458040                       # Total bandwidth to/from this memory (bytes/s)
system.mem_ctrls0.bw_total::cpu.inst               86                       # Total bandwidth to/from this memory (bytes/s)
system.mem_ctrls0.bw_total::cpu.data              129                       # Total bandwidth to/from this memory (bytes/s)
system.mem_ctrls0.bw_total::switch_cpus.inst         5404                       # Total bandwidth to/from this memory (bytes/s)
system.mem_ctrls0.bw_total::switch_cpus.data     57574596                       # Total bandwidth to/from this memory (bytes/s)
system.mem_ctrls0.bw_total::switch_cpus_1.inst           43                       # Total bandwidth to/from this memory (bytes/s)
system.mem_ctrls0.bw_total::switch_cpus_1.data     11799484                       # Total bandwidth to/from this memory (bytes/s)
system.mem_ctrls0.bw_total::total            92837781                       # Total bandwidth to/from this memory (bytes/s)
system.mem_ctrls0.readReqs                    1617730                       # Number of read requests accepted
system.mem_ctrls0.writeReqs                    546972                       # Number of write requests accepted
system.mem_ctrls0.readBursts                  1617730                       # Number of DRAM read bursts, including those serviced by the write queue
system.mem_ctrls0.writeBursts                  546972                       # Number of DRAM write bursts, including those merged in the write queue
system.mem_ctrls0.bytesReadDRAM             103517440                       # Total number of bytes read from DRAM
system.mem_ctrls0.bytesReadWrQ                  17280                       # Total number of bytes read from write queue
system.mem_ctrls0.bytesWritten               35004992                       # Total number of bytes written to DRAM
system.mem_ctrls0.bytesReadSys              103534720                       # Total read bytes from the system interface side
system.mem_ctrls0.bytesWrittenSys            35006208                       # Total written bytes from the system interface side
system.mem_ctrls0.servicedByWrQ                   270                       # Number of DRAM read bursts serviced by the write queue
system.mem_ctrls0.mergedWrBursts                    0                       # Number of DRAM write bursts merged with an existing one
system.mem_ctrls0.neitherReadNorWriteReqs            0                       # Number of requests that are neither read nor write
system.mem_ctrls0.perBankRdBursts::0           105345                       # Per bank write bursts
system.mem_ctrls0.perBankRdBursts::1           103578                       # Per bank write bursts
system.mem_ctrls0.perBankRdBursts::2           103890                       # Per bank write bursts
system.mem_ctrls0.perBankRdBursts::3           101061                       # Per bank write bursts
system.mem_ctrls0.perBankRdBursts::4           101489                       # Per bank write bursts
system.mem_ctrls0.perBankRdBursts::5           101582                       # Per bank write bursts
system.mem_ctrls0.perBankRdBursts::6           100965                       # Per bank write bursts
system.mem_ctrls0.perBankRdBursts::7           101049                       # Per bank write bursts
system.mem_ctrls0.perBankRdBursts::8           100384                       # Per bank write bursts
system.mem_ctrls0.perBankRdBursts::9            99163                       # Per bank write bursts
system.mem_ctrls0.perBankRdBursts::10           99396                       # Per bank write bursts
system.mem_ctrls0.perBankRdBursts::11           99348                       # Per bank write bursts
system.mem_ctrls0.perBankRdBursts::12           98392                       # Per bank write bursts
system.mem_ctrls0.perBankRdBursts::13           98004                       # Per bank write bursts
system.mem_ctrls0.perBankRdBursts::14          100365                       # Per bank write bursts
system.mem_ctrls0.perBankRdBursts::15          103449                       # Per bank write bursts
system.mem_ctrls0.perBankWrBursts::0            36490                       # Per bank write bursts
system.mem_ctrls0.perBankWrBursts::1            35397                       # Per bank write bursts
system.mem_ctrls0.perBankWrBursts::2            34873                       # Per bank write bursts
system.mem_ctrls0.perBankWrBursts::3            33713                       # Per bank write bursts
system.mem_ctrls0.perBankWrBursts::4            33651                       # Per bank write bursts
system.mem_ctrls0.perBankWrBursts::5            33666                       # Per bank write bursts
system.mem_ctrls0.perBankWrBursts::6            33575                       # Per bank write bursts
system.mem_ctrls0.perBankWrBursts::7            33888                       # Per bank write bursts
system.mem_ctrls0.perBankWrBursts::8            33590                       # Per bank write bursts
system.mem_ctrls0.perBankWrBursts::9            33412                       # Per bank write bursts
system.mem_ctrls0.perBankWrBursts::10           33779                       # Per bank write bursts
system.mem_ctrls0.perBankWrBursts::11           33706                       # Per bank write bursts
system.mem_ctrls0.perBankWrBursts::12           33589                       # Per bank write bursts
system.mem_ctrls0.perBankWrBursts::13           33609                       # Per bank write bursts
system.mem_ctrls0.perBankWrBursts::14           34407                       # Per bank write bursts
system.mem_ctrls0.perBankWrBursts::15           35608                       # Per bank write bursts
system.mem_ctrls0.numRdRetry                        0                       # Number of times read queue was full causing retry
system.mem_ctrls0.numWrRetry                        0                       # Number of times write queue was full causing retry
system.mem_ctrls0.totGap                 1492289556660                       # Total gap between requests
system.mem_ctrls0.readPktSize::0                    0                       # Read request sizes (log2)
system.mem_ctrls0.readPktSize::1                    0                       # Read request sizes (log2)
system.mem_ctrls0.readPktSize::2                    0                       # Read request sizes (log2)
system.mem_ctrls0.readPktSize::3                    0                       # Read request sizes (log2)
system.mem_ctrls0.readPktSize::4                    0                       # Read request sizes (log2)
system.mem_ctrls0.readPktSize::5                    0                       # Read request sizes (log2)
system.mem_ctrls0.readPktSize::6              1617730                       # Read request sizes (log2)
system.mem_ctrls0.writePktSize::0                   0                       # Write request sizes (log2)
system.mem_ctrls0.writePktSize::1                   0                       # Write request sizes (log2)
system.mem_ctrls0.writePktSize::2                   0                       # Write request sizes (log2)
system.mem_ctrls0.writePktSize::3                   0                       # Write request sizes (log2)
system.mem_ctrls0.writePktSize::4                   0                       # Write request sizes (log2)
system.mem_ctrls0.writePktSize::5                   0                       # Write request sizes (log2)
system.mem_ctrls0.writePktSize::6              546972                       # Write request sizes (log2)
system.mem_ctrls0.rdQLenPdf::0                1511443                       # What read queue length does an incoming req see
system.mem_ctrls0.rdQLenPdf::1                  92645                       # What read queue length does an incoming req see
system.mem_ctrls0.rdQLenPdf::2                  12158                       # What read queue length does an incoming req see
system.mem_ctrls0.rdQLenPdf::3                   1214                       # What read queue length does an incoming req see
system.mem_ctrls0.rdQLenPdf::4                      0                       # What read queue length does an incoming req see
system.mem_ctrls0.rdQLenPdf::5                      0                       # What read queue length does an incoming req see
system.mem_ctrls0.rdQLenPdf::6                      0                       # What read queue length does an incoming req see
system.mem_ctrls0.rdQLenPdf::7                      0                       # What read queue length does an incoming req see
system.mem_ctrls0.rdQLenPdf::8                      0                       # What read queue length does an incoming req see
system.mem_ctrls0.rdQLenPdf::9                      0                       # What read queue length does an incoming req see
system.mem_ctrls0.rdQLenPdf::10                     0                       # What read queue length does an incoming req see
system.mem_ctrls0.rdQLenPdf::11                     0                       # What read queue length does an incoming req see
system.mem_ctrls0.rdQLenPdf::12                     0                       # What read queue length does an incoming req see
system.mem_ctrls0.rdQLenPdf::13                     0                       # What read queue length does an incoming req see
system.mem_ctrls0.rdQLenPdf::14                     0                       # What read queue length does an incoming req see
system.mem_ctrls0.rdQLenPdf::15                     0                       # What read queue length does an incoming req see
system.mem_ctrls0.rdQLenPdf::16                     0                       # What read queue length does an incoming req see
system.mem_ctrls0.rdQLenPdf::17                     0                       # What read queue length does an incoming req see
system.mem_ctrls0.rdQLenPdf::18                     0                       # What read queue length does an incoming req see
system.mem_ctrls0.rdQLenPdf::19                     0                       # What read queue length does an incoming req see
system.mem_ctrls0.rdQLenPdf::20                     0                       # What read queue length does an incoming req see
system.mem_ctrls0.rdQLenPdf::21                     0                       # What read queue length does an incoming req see
system.mem_ctrls0.rdQLenPdf::22                     0                       # What read queue length does an incoming req see
system.mem_ctrls0.rdQLenPdf::23                     0                       # What read queue length does an incoming req see
system.mem_ctrls0.rdQLenPdf::24                     0                       # What read queue length does an incoming req see
system.mem_ctrls0.rdQLenPdf::25                     0                       # What read queue length does an incoming req see
system.mem_ctrls0.rdQLenPdf::26                     0                       # What read queue length does an incoming req see
system.mem_ctrls0.rdQLenPdf::27                     0                       # What read queue length does an incoming req see
system.mem_ctrls0.rdQLenPdf::28                     0                       # What read queue length does an incoming req see
system.mem_ctrls0.rdQLenPdf::29                     0                       # What read queue length does an incoming req see
system.mem_ctrls0.rdQLenPdf::30                     0                       # What read queue length does an incoming req see
system.mem_ctrls0.rdQLenPdf::31                     0                       # What read queue length does an incoming req see
system.mem_ctrls0.wrQLenPdf::0                      2                       # What write queue length does an incoming req see
system.mem_ctrls0.wrQLenPdf::1                      2                       # What write queue length does an incoming req see
system.mem_ctrls0.wrQLenPdf::2                      2                       # What write queue length does an incoming req see
system.mem_ctrls0.wrQLenPdf::3                      2                       # What write queue length does an incoming req see
system.mem_ctrls0.wrQLenPdf::4                      2                       # What write queue length does an incoming req see
system.mem_ctrls0.wrQLenPdf::5                      2                       # What write queue length does an incoming req see
system.mem_ctrls0.wrQLenPdf::6                      2                       # What write queue length does an incoming req see
system.mem_ctrls0.wrQLenPdf::7                      2                       # What write queue length does an incoming req see
system.mem_ctrls0.wrQLenPdf::8                      2                       # What write queue length does an incoming req see
system.mem_ctrls0.wrQLenPdf::9                      2                       # What write queue length does an incoming req see
system.mem_ctrls0.wrQLenPdf::10                     2                       # What write queue length does an incoming req see
system.mem_ctrls0.wrQLenPdf::11                     2                       # What write queue length does an incoming req see
system.mem_ctrls0.wrQLenPdf::12                     2                       # What write queue length does an incoming req see
system.mem_ctrls0.wrQLenPdf::13                     2                       # What write queue length does an incoming req see
system.mem_ctrls0.wrQLenPdf::14                     2                       # What write queue length does an incoming req see
system.mem_ctrls0.wrQLenPdf::15                 17421                       # What write queue length does an incoming req see
system.mem_ctrls0.wrQLenPdf::16                 18170                       # What write queue length does an incoming req see
system.mem_ctrls0.wrQLenPdf::17                 30337                       # What write queue length does an incoming req see
system.mem_ctrls0.wrQLenPdf::18                 31846                       # What write queue length does an incoming req see
system.mem_ctrls0.wrQLenPdf::19                 32029                       # What write queue length does an incoming req see
system.mem_ctrls0.wrQLenPdf::20                 32040                       # What write queue length does an incoming req see
system.mem_ctrls0.wrQLenPdf::21                 32013                       # What write queue length does an incoming req see
system.mem_ctrls0.wrQLenPdf::22                 32071                       # What write queue length does an incoming req see
system.mem_ctrls0.wrQLenPdf::23                 32069                       # What write queue length does an incoming req see
system.mem_ctrls0.wrQLenPdf::24                 32056                       # What write queue length does an incoming req see
system.mem_ctrls0.wrQLenPdf::25                 32041                       # What write queue length does an incoming req see
system.mem_ctrls0.wrQLenPdf::26                 32030                       # What write queue length does an incoming req see
system.mem_ctrls0.wrQLenPdf::27                 32136                       # What write queue length does an incoming req see
system.mem_ctrls0.wrQLenPdf::28                 32398                       # What write queue length does an incoming req see
system.mem_ctrls0.wrQLenPdf::29                 32336                       # What write queue length does an incoming req see
system.mem_ctrls0.wrQLenPdf::30                 32077                       # What write queue length does an incoming req see
system.mem_ctrls0.wrQLenPdf::31                 31908                       # What write queue length does an incoming req see
system.mem_ctrls0.wrQLenPdf::32                 31875                       # What write queue length does an incoming req see
system.mem_ctrls0.wrQLenPdf::33                    81                       # What write queue length does an incoming req see
system.mem_ctrls0.wrQLenPdf::34                     8                       # What write queue length does an incoming req see
system.mem_ctrls0.wrQLenPdf::35                     0                       # What write queue length does an incoming req see
system.mem_ctrls0.wrQLenPdf::36                     0                       # What write queue length does an incoming req see
system.mem_ctrls0.wrQLenPdf::37                     0                       # What write queue length does an incoming req see
system.mem_ctrls0.wrQLenPdf::38                     0                       # What write queue length does an incoming req see
system.mem_ctrls0.wrQLenPdf::39                     0                       # What write queue length does an incoming req see
system.mem_ctrls0.wrQLenPdf::40                     0                       # What write queue length does an incoming req see
system.mem_ctrls0.wrQLenPdf::41                     0                       # What write queue length does an incoming req see
system.mem_ctrls0.wrQLenPdf::42                     0                       # What write queue length does an incoming req see
system.mem_ctrls0.wrQLenPdf::43                     0                       # What write queue length does an incoming req see
system.mem_ctrls0.wrQLenPdf::44                     0                       # What write queue length does an incoming req see
system.mem_ctrls0.wrQLenPdf::45                     0                       # What write queue length does an incoming req see
system.mem_ctrls0.wrQLenPdf::46                     0                       # What write queue length does an incoming req see
system.mem_ctrls0.wrQLenPdf::47                     0                       # What write queue length does an incoming req see
system.mem_ctrls0.wrQLenPdf::48                     0                       # What write queue length does an incoming req see
system.mem_ctrls0.wrQLenPdf::49                     0                       # What write queue length does an incoming req see
system.mem_ctrls0.wrQLenPdf::50                     0                       # What write queue length does an incoming req see
system.mem_ctrls0.wrQLenPdf::51                     0                       # What write queue length does an incoming req see
system.mem_ctrls0.wrQLenPdf::52                     0                       # What write queue length does an incoming req see
system.mem_ctrls0.wrQLenPdf::53                     0                       # What write queue length does an incoming req see
system.mem_ctrls0.wrQLenPdf::54                     0                       # What write queue length does an incoming req see
system.mem_ctrls0.wrQLenPdf::55                     0                       # What write queue length does an incoming req see
system.mem_ctrls0.wrQLenPdf::56                     0                       # What write queue length does an incoming req see
system.mem_ctrls0.wrQLenPdf::57                     0                       # What write queue length does an incoming req see
system.mem_ctrls0.wrQLenPdf::58                     0                       # What write queue length does an incoming req see
system.mem_ctrls0.wrQLenPdf::59                     0                       # What write queue length does an incoming req see
system.mem_ctrls0.wrQLenPdf::60                     0                       # What write queue length does an incoming req see
system.mem_ctrls0.wrQLenPdf::61                     0                       # What write queue length does an incoming req see
system.mem_ctrls0.wrQLenPdf::62                     0                       # What write queue length does an incoming req see
system.mem_ctrls0.wrQLenPdf::63                     0                       # What write queue length does an incoming req see
system.mem_ctrls0.bytesPerActivate::samples      1960386                       # Bytes accessed per row activation
system.mem_ctrls0.bytesPerActivate::mean    70.660501                       # Bytes accessed per row activation
system.mem_ctrls0.bytesPerActivate::gmean    67.821940                       # Bytes accessed per row activation
system.mem_ctrls0.bytesPerActivate::stdev    30.976601                       # Bytes accessed per row activation
system.mem_ctrls0.bytesPerActivate::0-127      1833953     93.55%     93.55% # Bytes accessed per row activation
system.mem_ctrls0.bytesPerActivate::128-255       106787      5.45%     99.00% # Bytes accessed per row activation
system.mem_ctrls0.bytesPerActivate::256-383        16067      0.82%     99.82% # Bytes accessed per row activation
system.mem_ctrls0.bytesPerActivate::384-511         2908      0.15%     99.97% # Bytes accessed per row activation
system.mem_ctrls0.bytesPerActivate::512-639          545      0.03%     99.99% # Bytes accessed per row activation
system.mem_ctrls0.bytesPerActivate::640-767           96      0.00%    100.00% # Bytes accessed per row activation
system.mem_ctrls0.bytesPerActivate::768-895           21      0.00%    100.00% # Bytes accessed per row activation
system.mem_ctrls0.bytesPerActivate::896-1023            3      0.00%    100.00% # Bytes accessed per row activation
system.mem_ctrls0.bytesPerActivate::1024-1151            6      0.00%    100.00% # Bytes accessed per row activation
system.mem_ctrls0.bytesPerActivate::total      1960386                       # Bytes accessed per row activation
system.mem_ctrls0.rdPerTurnAround::samples        31864                       # Reads before turning the bus around for writes
system.mem_ctrls0.rdPerTurnAround::mean     50.760921                       # Reads before turning the bus around for writes
system.mem_ctrls0.rdPerTurnAround::gmean    47.804061                       # Reads before turning the bus around for writes
system.mem_ctrls0.rdPerTurnAround::stdev   115.003943                       # Reads before turning the bus around for writes
system.mem_ctrls0.rdPerTurnAround::0-1023        31860     99.99%     99.99% # Reads before turning the bus around for writes
system.mem_ctrls0.rdPerTurnAround::1024-2047            3      0.01%    100.00% # Reads before turning the bus around for writes
system.mem_ctrls0.rdPerTurnAround::19456-20479            1      0.00%    100.00% # Reads before turning the bus around for writes
system.mem_ctrls0.rdPerTurnAround::total        31864                       # Reads before turning the bus around for writes
system.mem_ctrls0.wrPerTurnAround::samples        31864                       # Writes before turning the bus around for reads
system.mem_ctrls0.wrPerTurnAround::mean     17.165233                       # Writes before turning the bus around for reads
system.mem_ctrls0.wrPerTurnAround::gmean    17.132925                       # Writes before turning the bus around for reads
system.mem_ctrls0.wrPerTurnAround::stdev     1.051584                       # Writes before turning the bus around for reads
system.mem_ctrls0.wrPerTurnAround::16           13761     43.19%     43.19% # Writes before turning the bus around for reads
system.mem_ctrls0.wrPerTurnAround::17             588      1.85%     45.03% # Writes before turning the bus around for reads
system.mem_ctrls0.wrPerTurnAround::18           16120     50.59%     95.62% # Writes before turning the bus around for reads
system.mem_ctrls0.wrPerTurnAround::19            1290      4.05%     99.67% # Writes before turning the bus around for reads
system.mem_ctrls0.wrPerTurnAround::20             100      0.31%     99.98% # Writes before turning the bus around for reads
system.mem_ctrls0.wrPerTurnAround::21               4      0.01%    100.00% # Writes before turning the bus around for reads
system.mem_ctrls0.wrPerTurnAround::27               1      0.00%    100.00% # Writes before turning the bus around for reads
system.mem_ctrls0.wrPerTurnAround::total        31864                       # Writes before turning the bus around for reads
system.mem_ctrls0.totQLat                 86634958532                       # Total ticks spent queuing
system.mem_ctrls0.totMemAccLat           116962333532                       # Total ticks spent from burst creation until serviced by the DRAM
system.mem_ctrls0.totBusLat                8087300000                       # Total ticks spent in databus transfers
system.mem_ctrls0.avgQLat                    53562.35                       # Average queueing delay per DRAM burst
system.mem_ctrls0.avgBusLat                   5000.00                       # Average bus latency per DRAM burst
system.mem_ctrls0.avgMemAccLat               72312.35                       # Average memory access latency per DRAM burst
system.mem_ctrls0.avgRdBW                       69.37                       # Average DRAM read bandwidth in MiByte/s
system.mem_ctrls0.avgWrBW                       23.46                       # Average achieved write bandwidth in MiByte/s
system.mem_ctrls0.avgRdBWSys                    69.38                       # Average system read bandwidth in MiByte/s
system.mem_ctrls0.avgWrBWSys                    23.46                       # Average system write bandwidth in MiByte/s
system.mem_ctrls0.peakBW                     12800.00                       # Theoretical peak bandwidth in MiByte/s
system.mem_ctrls0.busUtil                        0.73                       # Data bus utilization in percentage
system.mem_ctrls0.busUtilRead                    0.54                       # Data bus utilization in percentage for reads
system.mem_ctrls0.busUtilWrite                   0.18                       # Data bus utilization in percentage for writes
system.mem_ctrls0.avgRdQLen                      1.01                       # Average read queue length when enqueuing
system.mem_ctrls0.avgWrQLen                     24.40                       # Average write queue length when enqueuing
system.mem_ctrls0.readRowHits                   32891                       # Number of row buffer hits during reads
system.mem_ctrls0.writeRowHits                 171128                       # Number of row buffer hits during writes
system.mem_ctrls0.readRowHitRate                 2.03                       # Row buffer hit rate for reads
system.mem_ctrls0.writeRowHitRate               31.29                       # Row buffer hit rate for writes
system.mem_ctrls0.avgGap                    689374.13                       # Average gap between requests
system.mem_ctrls0.pageHitRate                    9.43                       # Row buffer hit rate, read and write combined
system.mem_ctrls0_0.actEnergy              7074262020                       # Energy for activate commands per rank (pJ)
system.mem_ctrls0_0.preEnergy              3760051845                       # Energy for precharge commands per rank (pJ)
system.mem_ctrls0_0.readEnergy             5847367260                       # Energy for read commands per rank (pJ)
system.mem_ctrls0_0.writeEnergy            1436820660                       # Energy for write commands per rank (pJ)
system.mem_ctrls0_0.refreshEnergy        119640905280.000031                       # Energy for refresh commands per rank (pJ)
system.mem_ctrls0_0.actBackEnergy         63320095590                       # Energy for active background per rank (pJ)
system.mem_ctrls0_0.preBackEnergy          6154076640                       # Energy for precharge background per rank (pJ)
system.mem_ctrls0_0.actPowerDownEnergy   326873019090                       # Energy for active power-down per rank (pJ)
system.mem_ctrls0_0.prePowerDownEnergy   162602791680                       # Energy for precharge power-down per rank (pJ)
system.mem_ctrls0_0.selfRefreshEnergy     64115012160                       # Energy for self refresh per rank (pJ)
system.mem_ctrls0_0.totalEnergy          760869505575                       # Total energy per rank (pJ)
system.mem_ctrls0_0.averagePower           509.866916                       # Core power per rank (mW)
system.mem_ctrls0_0.totalIdleTime        1337304534431                       # Total Idle time Per DRAM Rank
system.mem_ctrls0_0.memoryStateTime::IDLE   8836469569                       # Time in different power states
system.mem_ctrls0_0.memoryStateTime::REF  50796180000                       # Time in different power states
system.mem_ctrls0_0.memoryStateTime::SREF 197032325760                       # Time in different power states
system.mem_ctrls0_0.memoryStateTime::PRE_PDN 423444511891                       # Time in different power states
system.mem_ctrls0_0.memoryStateTime::ACT  95352048523                       # Time in different power states
system.mem_ctrls0_0.memoryStateTime::ACT_PDN 716828857413                       # Time in different power states
system.mem_ctrls0_1.actEnergy              6922951140                       # Energy for activate commands per rank (pJ)
system.mem_ctrls0_1.preEnergy              3679613025                       # Energy for precharge commands per rank (pJ)
system.mem_ctrls0_1.readEnergy             5701297140                       # Energy for read commands per rank (pJ)
system.mem_ctrls0_1.writeEnergy            1418274000                       # Energy for write commands per rank (pJ)
system.mem_ctrls0_1.refreshEnergy        120652602720.000031                       # Energy for refresh commands per rank (pJ)
system.mem_ctrls0_1.actBackEnergy         62426960310                       # Energy for active background per rank (pJ)
system.mem_ctrls0_1.preBackEnergy          5914696320                       # Energy for precharge background per rank (pJ)
system.mem_ctrls0_1.actPowerDownEnergy   327696422280                       # Energy for active power-down per rank (pJ)
system.mem_ctrls0_1.prePowerDownEnergy   171062034240                       # Energy for precharge power-down per rank (pJ)
system.mem_ctrls0_1.selfRefreshEnergy     58375650675                       # Energy for self refresh per rank (pJ)
system.mem_ctrls0_1.totalEnergy          763907178300                       # Total energy per rank (pJ)
system.mem_ctrls0_1.averagePower           511.902488                       # Core power per rank (mW)
system.mem_ctrls0_1.totalIdleTime        1339857734248                       # Total Idle time Per DRAM Rank
system.mem_ctrls0_1.memoryStateTime::IDLE   8554375474                       # Time in different power states
system.mem_ctrls0_1.memoryStateTime::REF  51218596000                       # Time in different power states
system.mem_ctrls0_1.memoryStateTime::SREF 175753667364                       # Time in different power states
system.mem_ctrls0_1.memoryStateTime::PRE_PDN 445472955491                       # Time in different power states
system.mem_ctrls0_1.memoryStateTime::ACT  92658918173                       # Time in different power states
system.mem_ctrls0_1.memoryStateTime::ACT_PDN 718631880654                       # Time in different power states
system.mem_ctrls1.pwrStateResidencyTicks::UNDEFINED 34795668317517                       # Cumulative time (in ticks) in various power states
system.mem_ctrls1.bytes_read::cpu.inst             64                       # Number of bytes read from this memory
system.mem_ctrls1.bytes_read::cpu.data            192                       # Number of bytes read from this memory
system.mem_ctrls1.bytes_read::switch_cpus.inst         8128                       # Number of bytes read from this memory
system.mem_ctrls1.bytes_read::switch_cpus.data     85937856                       # Number of bytes read from this memory
system.mem_ctrls1.bytes_read::switch_cpus_1.data     17622528                       # Number of bytes read from this memory
system.mem_ctrls1.bytes_read::total         103568768                       # Number of bytes read from this memory
system.mem_ctrls1.bytes_inst_read::cpu.inst           64                       # Number of instructions bytes read from this memory
system.mem_ctrls1.bytes_inst_read::switch_cpus.inst         8128                       # Number of instructions bytes read from this memory
system.mem_ctrls1.bytes_inst_read::total         8192                       # Number of instructions bytes read from this memory
system.mem_ctrls1.bytes_written::writebacks     35008384                       # Number of bytes written to this memory
system.mem_ctrls1.bytes_written::total       35008384                       # Number of bytes written to this memory
system.mem_ctrls1.num_reads::cpu.inst               1                       # Number of read requests responded to by this memory
system.mem_ctrls1.num_reads::cpu.data               3                       # Number of read requests responded to by this memory
system.mem_ctrls1.num_reads::switch_cpus.inst          127                       # Number of read requests responded to by this memory
system.mem_ctrls1.num_reads::switch_cpus.data      1342779                       # Number of read requests responded to by this memory
system.mem_ctrls1.num_reads::switch_cpus_1.data       275352                       # Number of read requests responded to by this memory
system.mem_ctrls1.num_reads::total            1618262                       # Number of read requests responded to by this memory
system.mem_ctrls1.num_writes::writebacks       547006                       # Number of write requests responded to by this memory
system.mem_ctrls1.num_writes::total            547006                       # Number of write requests responded to by this memory
system.mem_ctrls1.bw_read::cpu.inst                43                       # Total read bandwidth from this memory (bytes/s)
system.mem_ctrls1.bw_read::cpu.data               129                       # Total read bandwidth from this memory (bytes/s)
system.mem_ctrls1.bw_read::switch_cpus.inst         5447                       # Total read bandwidth from this memory (bytes/s)
system.mem_ctrls1.bw_read::switch_cpus.data     57587891                       # Total read bandwidth from this memory (bytes/s)
system.mem_ctrls1.bw_read::switch_cpus_1.data     11809047                       # Total read bandwidth from this memory (bytes/s)
system.mem_ctrls1.bw_read::total             69402556                       # Total read bandwidth from this memory (bytes/s)
system.mem_ctrls1.bw_inst_read::cpu.inst           43                       # Instruction read bandwidth from this memory (bytes/s)
system.mem_ctrls1.bw_inst_read::switch_cpus.inst         5447                       # Instruction read bandwidth from this memory (bytes/s)
system.mem_ctrls1.bw_inst_read::total            5490                       # Instruction read bandwidth from this memory (bytes/s)
system.mem_ctrls1.bw_write::writebacks       23459498                       # Write bandwidth from this memory (bytes/s)
system.mem_ctrls1.bw_write::total            23459498                       # Write bandwidth from this memory (bytes/s)
system.mem_ctrls1.bw_total::writebacks       23459498                       # Total bandwidth to/from this memory (bytes/s)
system.mem_ctrls1.bw_total::cpu.inst               43                       # Total bandwidth to/from this memory (bytes/s)
system.mem_ctrls1.bw_total::cpu.data              129                       # Total bandwidth to/from this memory (bytes/s)
system.mem_ctrls1.bw_total::switch_cpus.inst         5447                       # Total bandwidth to/from this memory (bytes/s)
system.mem_ctrls1.bw_total::switch_cpus.data     57587891                       # Total bandwidth to/from this memory (bytes/s)
system.mem_ctrls1.bw_total::switch_cpus_1.data     11809047                       # Total bandwidth to/from this memory (bytes/s)
system.mem_ctrls1.bw_total::total            92862055                       # Total bandwidth to/from this memory (bytes/s)
system.mem_ctrls1.readReqs                    1618262                       # Number of read requests accepted
system.mem_ctrls1.writeReqs                    547006                       # Number of write requests accepted
system.mem_ctrls1.readBursts                  1618262                       # Number of DRAM read bursts, including those serviced by the write queue
system.mem_ctrls1.writeBursts                  547006                       # Number of DRAM write bursts, including those merged in the write queue
system.mem_ctrls1.bytesReadDRAM             103552320                       # Total number of bytes read from DRAM
system.mem_ctrls1.bytesReadWrQ                  16448                       # Total number of bytes read from write queue
system.mem_ctrls1.bytesWritten               35007360                       # Total number of bytes written to DRAM
system.mem_ctrls1.bytesReadSys              103568768                       # Total read bytes from the system interface side
system.mem_ctrls1.bytesWrittenSys            35008384                       # Total written bytes from the system interface side
system.mem_ctrls1.servicedByWrQ                   257                       # Number of DRAM read bursts serviced by the write queue
system.mem_ctrls1.mergedWrBursts                    0                       # Number of DRAM write bursts merged with an existing one
system.mem_ctrls1.neitherReadNorWriteReqs            0                       # Number of requests that are neither read nor write
system.mem_ctrls1.perBankRdBursts::0           105797                       # Per bank write bursts
system.mem_ctrls1.perBankRdBursts::1           103184                       # Per bank write bursts
system.mem_ctrls1.perBankRdBursts::2           103878                       # Per bank write bursts
system.mem_ctrls1.perBankRdBursts::3           100977                       # Per bank write bursts
system.mem_ctrls1.perBankRdBursts::4           101790                       # Per bank write bursts
system.mem_ctrls1.perBankRdBursts::5           101561                       # Per bank write bursts
system.mem_ctrls1.perBankRdBursts::6           100926                       # Per bank write bursts
system.mem_ctrls1.perBankRdBursts::7           101345                       # Per bank write bursts
system.mem_ctrls1.perBankRdBursts::8           100198                       # Per bank write bursts
system.mem_ctrls1.perBankRdBursts::9            99198                       # Per bank write bursts
system.mem_ctrls1.perBankRdBursts::10           99271                       # Per bank write bursts
system.mem_ctrls1.perBankRdBursts::11           99374                       # Per bank write bursts
system.mem_ctrls1.perBankRdBursts::12           98137                       # Per bank write bursts
system.mem_ctrls1.perBankRdBursts::13           98181                       # Per bank write bursts
system.mem_ctrls1.perBankRdBursts::14          100582                       # Per bank write bursts
system.mem_ctrls1.perBankRdBursts::15          103606                       # Per bank write bursts
system.mem_ctrls1.perBankWrBursts::0            36499                       # Per bank write bursts
system.mem_ctrls1.perBankWrBursts::1            35349                       # Per bank write bursts
system.mem_ctrls1.perBankWrBursts::2            34796                       # Per bank write bursts
system.mem_ctrls1.perBankWrBursts::3            33754                       # Per bank write bursts
system.mem_ctrls1.perBankWrBursts::4            33679                       # Per bank write bursts
system.mem_ctrls1.perBankWrBursts::5            33666                       # Per bank write bursts
system.mem_ctrls1.perBankWrBursts::6            33528                       # Per bank write bursts
system.mem_ctrls1.perBankWrBursts::7            33983                       # Per bank write bursts
system.mem_ctrls1.perBankWrBursts::8            33562                       # Per bank write bursts
system.mem_ctrls1.perBankWrBursts::9            33390                       # Per bank write bursts
system.mem_ctrls1.perBankWrBursts::10           33828                       # Per bank write bursts
system.mem_ctrls1.perBankWrBursts::11           33713                       # Per bank write bursts
system.mem_ctrls1.perBankWrBursts::12           33531                       # Per bank write bursts
system.mem_ctrls1.perBankWrBursts::13           33594                       # Per bank write bursts
system.mem_ctrls1.perBankWrBursts::14           34460                       # Per bank write bursts
system.mem_ctrls1.perBankWrBursts::15           35658                       # Per bank write bursts
system.mem_ctrls1.numRdRetry                        0                       # Number of times read queue was full causing retry
system.mem_ctrls1.numWrRetry                        0                       # Number of times write queue was full causing retry
system.mem_ctrls1.totGap                 1492289993889                       # Total gap between requests
system.mem_ctrls1.readPktSize::0                    0                       # Read request sizes (log2)
system.mem_ctrls1.readPktSize::1                    0                       # Read request sizes (log2)
system.mem_ctrls1.readPktSize::2                    0                       # Read request sizes (log2)
system.mem_ctrls1.readPktSize::3                    0                       # Read request sizes (log2)
system.mem_ctrls1.readPktSize::4                    0                       # Read request sizes (log2)
system.mem_ctrls1.readPktSize::5                    0                       # Read request sizes (log2)
system.mem_ctrls1.readPktSize::6              1618262                       # Read request sizes (log2)
system.mem_ctrls1.writePktSize::0                   0                       # Write request sizes (log2)
system.mem_ctrls1.writePktSize::1                   0                       # Write request sizes (log2)
system.mem_ctrls1.writePktSize::2                   0                       # Write request sizes (log2)
system.mem_ctrls1.writePktSize::3                   0                       # Write request sizes (log2)
system.mem_ctrls1.writePktSize::4                   0                       # Write request sizes (log2)
system.mem_ctrls1.writePktSize::5                   0                       # Write request sizes (log2)
system.mem_ctrls1.writePktSize::6              547006                       # Write request sizes (log2)
system.mem_ctrls1.rdQLenPdf::0                1513132                       # What read queue length does an incoming req see
system.mem_ctrls1.rdQLenPdf::1                  92492                       # What read queue length does an incoming req see
system.mem_ctrls1.rdQLenPdf::2                  11428                       # What read queue length does an incoming req see
system.mem_ctrls1.rdQLenPdf::3                    953                       # What read queue length does an incoming req see
system.mem_ctrls1.rdQLenPdf::4                      0                       # What read queue length does an incoming req see
system.mem_ctrls1.rdQLenPdf::5                      0                       # What read queue length does an incoming req see
system.mem_ctrls1.rdQLenPdf::6                      0                       # What read queue length does an incoming req see
system.mem_ctrls1.rdQLenPdf::7                      0                       # What read queue length does an incoming req see
system.mem_ctrls1.rdQLenPdf::8                      0                       # What read queue length does an incoming req see
system.mem_ctrls1.rdQLenPdf::9                      0                       # What read queue length does an incoming req see
system.mem_ctrls1.rdQLenPdf::10                     0                       # What read queue length does an incoming req see
system.mem_ctrls1.rdQLenPdf::11                     0                       # What read queue length does an incoming req see
system.mem_ctrls1.rdQLenPdf::12                     0                       # What read queue length does an incoming req see
system.mem_ctrls1.rdQLenPdf::13                     0                       # What read queue length does an incoming req see
system.mem_ctrls1.rdQLenPdf::14                     0                       # What read queue length does an incoming req see
system.mem_ctrls1.rdQLenPdf::15                     0                       # What read queue length does an incoming req see
system.mem_ctrls1.rdQLenPdf::16                     0                       # What read queue length does an incoming req see
system.mem_ctrls1.rdQLenPdf::17                     0                       # What read queue length does an incoming req see
system.mem_ctrls1.rdQLenPdf::18                     0                       # What read queue length does an incoming req see
system.mem_ctrls1.rdQLenPdf::19                     0                       # What read queue length does an incoming req see
system.mem_ctrls1.rdQLenPdf::20                     0                       # What read queue length does an incoming req see
system.mem_ctrls1.rdQLenPdf::21                     0                       # What read queue length does an incoming req see
system.mem_ctrls1.rdQLenPdf::22                     0                       # What read queue length does an incoming req see
system.mem_ctrls1.rdQLenPdf::23                     0                       # What read queue length does an incoming req see
system.mem_ctrls1.rdQLenPdf::24                     0                       # What read queue length does an incoming req see
system.mem_ctrls1.rdQLenPdf::25                     0                       # What read queue length does an incoming req see
system.mem_ctrls1.rdQLenPdf::26                     0                       # What read queue length does an incoming req see
system.mem_ctrls1.rdQLenPdf::27                     0                       # What read queue length does an incoming req see
system.mem_ctrls1.rdQLenPdf::28                     0                       # What read queue length does an incoming req see
system.mem_ctrls1.rdQLenPdf::29                     0                       # What read queue length does an incoming req see
system.mem_ctrls1.rdQLenPdf::30                     0                       # What read queue length does an incoming req see
system.mem_ctrls1.rdQLenPdf::31                     0                       # What read queue length does an incoming req see
system.mem_ctrls1.wrQLenPdf::0                      2                       # What write queue length does an incoming req see
system.mem_ctrls1.wrQLenPdf::1                      2                       # What write queue length does an incoming req see
system.mem_ctrls1.wrQLenPdf::2                      2                       # What write queue length does an incoming req see
system.mem_ctrls1.wrQLenPdf::3                      2                       # What write queue length does an incoming req see
system.mem_ctrls1.wrQLenPdf::4                      2                       # What write queue length does an incoming req see
system.mem_ctrls1.wrQLenPdf::5                      2                       # What write queue length does an incoming req see
system.mem_ctrls1.wrQLenPdf::6                      2                       # What write queue length does an incoming req see
system.mem_ctrls1.wrQLenPdf::7                      2                       # What write queue length does an incoming req see
system.mem_ctrls1.wrQLenPdf::8                      2                       # What write queue length does an incoming req see
system.mem_ctrls1.wrQLenPdf::9                      2                       # What write queue length does an incoming req see
system.mem_ctrls1.wrQLenPdf::10                     2                       # What write queue length does an incoming req see
system.mem_ctrls1.wrQLenPdf::11                     2                       # What write queue length does an incoming req see
system.mem_ctrls1.wrQLenPdf::12                     2                       # What write queue length does an incoming req see
system.mem_ctrls1.wrQLenPdf::13                     2                       # What write queue length does an incoming req see
system.mem_ctrls1.wrQLenPdf::14                     2                       # What write queue length does an incoming req see
system.mem_ctrls1.wrQLenPdf::15                 17386                       # What write queue length does an incoming req see
system.mem_ctrls1.wrQLenPdf::16                 18113                       # What write queue length does an incoming req see
system.mem_ctrls1.wrQLenPdf::17                 30428                       # What write queue length does an incoming req see
system.mem_ctrls1.wrQLenPdf::18                 31792                       # What write queue length does an incoming req see
system.mem_ctrls1.wrQLenPdf::19                 32036                       # What write queue length does an incoming req see
system.mem_ctrls1.wrQLenPdf::20                 32074                       # What write queue length does an incoming req see
system.mem_ctrls1.wrQLenPdf::21                 32040                       # What write queue length does an incoming req see
system.mem_ctrls1.wrQLenPdf::22                 32064                       # What write queue length does an incoming req see
system.mem_ctrls1.wrQLenPdf::23                 32055                       # What write queue length does an incoming req see
system.mem_ctrls1.wrQLenPdf::24                 32073                       # What write queue length does an incoming req see
system.mem_ctrls1.wrQLenPdf::25                 32053                       # What write queue length does an incoming req see
system.mem_ctrls1.wrQLenPdf::26                 32041                       # What write queue length does an incoming req see
system.mem_ctrls1.wrQLenPdf::27                 32134                       # What write queue length does an incoming req see
system.mem_ctrls1.wrQLenPdf::28                 32397                       # What write queue length does an incoming req see
system.mem_ctrls1.wrQLenPdf::29                 32323                       # What write queue length does an incoming req see
system.mem_ctrls1.wrQLenPdf::30                 32053                       # What write queue length does an incoming req see
system.mem_ctrls1.wrQLenPdf::31                 31909                       # What write queue length does an incoming req see
system.mem_ctrls1.wrQLenPdf::32                 31883                       # What write queue length does an incoming req see
system.mem_ctrls1.wrQLenPdf::33                   110                       # What write queue length does an incoming req see
system.mem_ctrls1.wrQLenPdf::34                    11                       # What write queue length does an incoming req see
system.mem_ctrls1.wrQLenPdf::35                     1                       # What write queue length does an incoming req see
system.mem_ctrls1.wrQLenPdf::36                     0                       # What write queue length does an incoming req see
system.mem_ctrls1.wrQLenPdf::37                     0                       # What write queue length does an incoming req see
system.mem_ctrls1.wrQLenPdf::38                     0                       # What write queue length does an incoming req see
system.mem_ctrls1.wrQLenPdf::39                     0                       # What write queue length does an incoming req see
system.mem_ctrls1.wrQLenPdf::40                     0                       # What write queue length does an incoming req see
system.mem_ctrls1.wrQLenPdf::41                     0                       # What write queue length does an incoming req see
system.mem_ctrls1.wrQLenPdf::42                     0                       # What write queue length does an incoming req see
system.mem_ctrls1.wrQLenPdf::43                     0                       # What write queue length does an incoming req see
system.mem_ctrls1.wrQLenPdf::44                     0                       # What write queue length does an incoming req see
system.mem_ctrls1.wrQLenPdf::45                     0                       # What write queue length does an incoming req see
system.mem_ctrls1.wrQLenPdf::46                     0                       # What write queue length does an incoming req see
system.mem_ctrls1.wrQLenPdf::47                     0                       # What write queue length does an incoming req see
system.mem_ctrls1.wrQLenPdf::48                     0                       # What write queue length does an incoming req see
system.mem_ctrls1.wrQLenPdf::49                     0                       # What write queue length does an incoming req see
system.mem_ctrls1.wrQLenPdf::50                     0                       # What write queue length does an incoming req see
system.mem_ctrls1.wrQLenPdf::51                     0                       # What write queue length does an incoming req see
system.mem_ctrls1.wrQLenPdf::52                     0                       # What write queue length does an incoming req see
system.mem_ctrls1.wrQLenPdf::53                     0                       # What write queue length does an incoming req see
system.mem_ctrls1.wrQLenPdf::54                     0                       # What write queue length does an incoming req see
system.mem_ctrls1.wrQLenPdf::55                     0                       # What write queue length does an incoming req see
system.mem_ctrls1.wrQLenPdf::56                     0                       # What write queue length does an incoming req see
system.mem_ctrls1.wrQLenPdf::57                     0                       # What write queue length does an incoming req see
system.mem_ctrls1.wrQLenPdf::58                     0                       # What write queue length does an incoming req see
system.mem_ctrls1.wrQLenPdf::59                     0                       # What write queue length does an incoming req see
system.mem_ctrls1.wrQLenPdf::60                     0                       # What write queue length does an incoming req see
system.mem_ctrls1.wrQLenPdf::61                     0                       # What write queue length does an incoming req see
system.mem_ctrls1.wrQLenPdf::62                     0                       # What write queue length does an incoming req see
system.mem_ctrls1.wrQLenPdf::63                     0                       # What write queue length does an incoming req see
system.mem_ctrls1.bytesPerActivate::samples      1960741                       # Bytes accessed per row activation
system.mem_ctrls1.bytesPerActivate::mean    70.666900                       # Bytes accessed per row activation
system.mem_ctrls1.bytesPerActivate::gmean    67.830323                       # Bytes accessed per row activation
system.mem_ctrls1.bytesPerActivate::stdev    30.930141                       # Bytes accessed per row activation
system.mem_ctrls1.bytesPerActivate::0-127      1833887     93.53%     93.53% # Bytes accessed per row activation
system.mem_ctrls1.bytesPerActivate::128-255       107302      5.47%     99.00% # Bytes accessed per row activation
system.mem_ctrls1.bytesPerActivate::256-383        16043      0.82%     99.82% # Bytes accessed per row activation
system.mem_ctrls1.bytesPerActivate::384-511         2848      0.15%     99.97% # Bytes accessed per row activation
system.mem_ctrls1.bytesPerActivate::512-639          521      0.03%     99.99% # Bytes accessed per row activation
system.mem_ctrls1.bytesPerActivate::640-767          108      0.01%    100.00% # Bytes accessed per row activation
system.mem_ctrls1.bytesPerActivate::768-895           24      0.00%    100.00% # Bytes accessed per row activation
system.mem_ctrls1.bytesPerActivate::896-1023            4      0.00%    100.00% # Bytes accessed per row activation
system.mem_ctrls1.bytesPerActivate::1024-1151            4      0.00%    100.00% # Bytes accessed per row activation
system.mem_ctrls1.bytesPerActivate::total      1960741                       # Bytes accessed per row activation
system.mem_ctrls1.rdPerTurnAround::samples        31866                       # Reads before turning the bus around for writes
system.mem_ctrls1.rdPerTurnAround::mean     50.775184                       # Reads before turning the bus around for writes
system.mem_ctrls1.rdPerTurnAround::gmean    47.780455                       # Reads before turning the bus around for writes
system.mem_ctrls1.rdPerTurnAround::stdev   114.984875                       # Reads before turning the bus around for writes
system.mem_ctrls1.rdPerTurnAround::0-1023        31863     99.99%     99.99% # Reads before turning the bus around for writes
system.mem_ctrls1.rdPerTurnAround::1024-2047            2      0.01%    100.00% # Reads before turning the bus around for writes
system.mem_ctrls1.rdPerTurnAround::19456-20479            1      0.00%    100.00% # Reads before turning the bus around for writes
system.mem_ctrls1.rdPerTurnAround::total        31866                       # Reads before turning the bus around for writes
system.mem_ctrls1.wrPerTurnAround::samples        31866                       # Writes before turning the bus around for reads
system.mem_ctrls1.wrPerTurnAround::mean     17.165317                       # Writes before turning the bus around for reads
system.mem_ctrls1.wrPerTurnAround::gmean    17.132814                       # Writes before turning the bus around for reads
system.mem_ctrls1.wrPerTurnAround::stdev     1.055068                       # Writes before turning the bus around for reads
system.mem_ctrls1.wrPerTurnAround::16           13789     43.27%     43.27% # Writes before turning the bus around for reads
system.mem_ctrls1.wrPerTurnAround::17             599      1.88%     45.15% # Writes before turning the bus around for reads
system.mem_ctrls1.wrPerTurnAround::18           16026     50.29%     95.44% # Writes before turning the bus around for reads
system.mem_ctrls1.wrPerTurnAround::19            1343      4.21%     99.66% # Writes before turning the bus around for reads
system.mem_ctrls1.wrPerTurnAround::20             100      0.31%     99.97% # Writes before turning the bus around for reads
system.mem_ctrls1.wrPerTurnAround::21               5      0.02%     99.99% # Writes before turning the bus around for reads
system.mem_ctrls1.wrPerTurnAround::22               3      0.01%    100.00% # Writes before turning the bus around for reads
system.mem_ctrls1.wrPerTurnAround::27               1      0.00%    100.00% # Writes before turning the bus around for reads
system.mem_ctrls1.wrPerTurnAround::total        31866                       # Writes before turning the bus around for reads
system.mem_ctrls1.totQLat                 86398722624                       # Total ticks spent queuing
system.mem_ctrls1.totMemAccLat           116736316374                       # Total ticks spent from burst creation until serviced by the DRAM
system.mem_ctrls1.totBusLat                8090025000                       # Total ticks spent in databus transfers
system.mem_ctrls1.avgQLat                    53398.30                       # Average queueing delay per DRAM burst
system.mem_ctrls1.avgBusLat                   5000.00                       # Average bus latency per DRAM burst
system.mem_ctrls1.avgMemAccLat               72148.30                       # Average memory access latency per DRAM burst
system.mem_ctrls1.avgRdBW                       69.39                       # Average DRAM read bandwidth in MiByte/s
system.mem_ctrls1.avgWrBW                       23.46                       # Average achieved write bandwidth in MiByte/s
system.mem_ctrls1.avgRdBWSys                    69.40                       # Average system read bandwidth in MiByte/s
system.mem_ctrls1.avgWrBWSys                    23.46                       # Average system write bandwidth in MiByte/s
system.mem_ctrls1.peakBW                     12800.00                       # Theoretical peak bandwidth in MiByte/s
system.mem_ctrls1.busUtil                        0.73                       # Data bus utilization in percentage
system.mem_ctrls1.busUtilRead                    0.54                       # Data bus utilization in percentage for reads
system.mem_ctrls1.busUtilWrite                   0.18                       # Data bus utilization in percentage for writes
system.mem_ctrls1.avgRdQLen                      1.01                       # Average read queue length when enqueuing
system.mem_ctrls1.avgWrQLen                     24.41                       # Average write queue length when enqueuing
system.mem_ctrls1.readRowHits                   32991                       # Number of row buffer hits during reads
system.mem_ctrls1.writeRowHits                 171260                       # Number of row buffer hits during writes
system.mem_ctrls1.readRowHitRate                 2.04                       # Row buffer hit rate for reads
system.mem_ctrls1.writeRowHitRate               31.31                       # Row buffer hit rate for writes
system.mem_ctrls1.avgGap                    689194.13                       # Average gap between requests
system.mem_ctrls1.pageHitRate                    9.43                       # Row buffer hit rate, read and write combined
system.mem_ctrls1_0.actEnergy              7075525800                       # Energy for activate commands per rank (pJ)
system.mem_ctrls1_0.preEnergy              3760727355                       # Energy for precharge commands per rank (pJ)
system.mem_ctrls1_0.readEnergy             5850930120                       # Energy for read commands per rank (pJ)
system.mem_ctrls1_0.writeEnergy            1436825880                       # Energy for write commands per rank (pJ)
system.mem_ctrls1_0.refreshEnergy        119643363840.000031                       # Energy for refresh commands per rank (pJ)
system.mem_ctrls1_0.actBackEnergy         63065187030                       # Energy for active background per rank (pJ)
system.mem_ctrls1_0.preBackEnergy          6133284000                       # Energy for precharge background per rank (pJ)
system.mem_ctrls1_0.actPowerDownEnergy   327690400230                       # Energy for active power-down per rank (pJ)
system.mem_ctrls1_0.prePowerDownEnergy   162627245280                       # Energy for precharge power-down per rank (pJ)
system.mem_ctrls1_0.selfRefreshEnergy     63724876605                       # Energy for self refresh per rank (pJ)
system.mem_ctrls1_0.totalEnergy          761054300520                       # Total energy per rank (pJ)
system.mem_ctrls1_0.averagePower           509.990744                       # Core power per rank (mW)
system.mem_ctrls1_0.totalIdleTime        1337914416988                       # Total Idle time Per DRAM Rank
system.mem_ctrls1_0.memoryStateTime::IDLE   8806958661                       # Time in different power states
system.mem_ctrls1_0.memoryStateTime::REF  50796002000                       # Time in different power states
system.mem_ctrls1_0.memoryStateTime::SREF 195787440147                       # Time in different power states
system.mem_ctrls1_0.memoryStateTime::PRE_PDN 423507688548                       # Time in different power states
system.mem_ctrls1_0.memoryStateTime::ACT  94772552842                       # Time in different power states
system.mem_ctrls1_0.memoryStateTime::ACT_PDN 718619750958                       # Time in different power states
system.mem_ctrls1_1.actEnergy              6924186360                       # Energy for activate commands per rank (pJ)
system.mem_ctrls1_1.preEnergy              3680284740                       # Energy for precharge commands per rank (pJ)
system.mem_ctrls1_1.readEnergy             5701625580                       # Energy for read commands per rank (pJ)
system.mem_ctrls1_1.writeEnergy            1418461920                       # Energy for write commands per rank (pJ)
system.mem_ctrls1_1.refreshEnergy        120696242160.000031                       # Energy for refresh commands per rank (pJ)
system.mem_ctrls1_1.actBackEnergy         62548071630                       # Energy for active background per rank (pJ)
system.mem_ctrls1_1.preBackEnergy          5920412160                       # Energy for precharge background per rank (pJ)
system.mem_ctrls1_1.actPowerDownEnergy   327289950720                       # Energy for active power-down per rank (pJ)
system.mem_ctrls1_1.prePowerDownEnergy   171554772960                       # Energy for precharge power-down per rank (pJ)
system.mem_ctrls1_1.selfRefreshEnergy     58205066175                       # Energy for self refresh per rank (pJ)
system.mem_ctrls1_1.totalEnergy          763998135585                       # Total energy per rank (pJ)
system.mem_ctrls1_1.averagePower           511.963440                       # Core power per rank (mW)
system.mem_ctrls1_1.totalIdleTime        1339576156745                       # Total Idle time Per DRAM Rank
system.mem_ctrls1_1.memoryStateTime::IDLE   8553570363                       # Time in different power states
system.mem_ctrls1_1.memoryStateTime::REF  51236828000                       # Time in different power states
system.mem_ctrls1_1.memoryStateTime::SREF 175076089647                       # Time in different power states
system.mem_ctrls1_1.memoryStateTime::PRE_PDN 446757461730                       # Time in different power states
system.mem_ctrls1_1.memoryStateTime::ACT  92923668756                       # Time in different power states
system.mem_ctrls1_1.memoryStateTime::ACT_PDN 717742774660                       # Time in different power states
system.pwrStateResidencyTicks::UNDEFINED 34795668317517                       # Cumulative time (in ticks) in various power states
system.cpu.branchPred.lookups                       0                       # Number of BP lookups
system.cpu.branchPred.condPredicted                 0                       # Number of conditional branches predicted
system.cpu.branchPred.condIncorrect                 0                       # Number of conditional branches incorrect
system.cpu.branchPred.BTBLookups                    0                       # Number of BTB lookups
system.cpu.branchPred.BTBHits                       0                       # Number of BTB hits
system.cpu.branchPred.BTBCorrect                    0                       # Number of correct BTB predictions (this stat may not work properly.
system.cpu.branchPred.BTBHitPct                   nan                       # BTB Hit Percentage
system.cpu.branchPred.usedRAS                       0                       # Number of times the RAS was used to get a target.
system.cpu.branchPred.RASInCorrect                  0                       # Number of incorrect RAS predictions.
system.cpu.branchPred.indirectLookups               0                       # Number of indirect predictor lookups.
system.cpu.branchPred.indirectHits                  0                       # Number of indirect target hits.
system.cpu.branchPred.indirectMisses                0                       # Number of indirect misses.
system.cpu.branchPredindirectMispredicted            0                       # Number of mispredicted indirect branches.
system.cpu_voltage_domain.voltage                   1                       # Voltage in Volts
system.cpu_clk_domain.clock                       333                       # Clock period in ticks
system.cpu.dtb.fetch_hits                           0                       # ITB hits
system.cpu.dtb.fetch_misses                         0                       # ITB misses
system.cpu.dtb.fetch_acv                            0                       # ITB acv
system.cpu.dtb.fetch_accesses                       0                       # ITB accesses
system.cpu.dtb.read_hits                           16                       # DTB read hits
system.cpu.dtb.read_misses                          0                       # DTB read misses
system.cpu.dtb.read_acv                             0                       # DTB read access violations
system.cpu.dtb.read_accesses                       16                       # DTB read accesses
system.cpu.dtb.write_hits                           1                       # DTB write hits
system.cpu.dtb.write_misses                         0                       # DTB write misses
system.cpu.dtb.write_acv                            0                       # DTB write access violations
system.cpu.dtb.write_accesses                       1                       # DTB write accesses
system.cpu.dtb.data_hits                           17                       # DTB hits
system.cpu.dtb.data_misses                          0                       # DTB misses
system.cpu.dtb.data_acv                             0                       # DTB access violations
system.cpu.dtb.data_accesses                       17                       # DTB accesses
system.cpu.itb.fetch_hits                           4                       # ITB hits
system.cpu.itb.fetch_misses                         0                       # ITB misses
system.cpu.itb.fetch_acv                            0                       # ITB acv
system.cpu.itb.fetch_accesses                       4                       # ITB accesses
system.cpu.itb.read_hits                            0                       # DTB read hits
system.cpu.itb.read_misses                          0                       # DTB read misses
system.cpu.itb.read_acv                             0                       # DTB read access violations
system.cpu.itb.read_accesses                        0                       # DTB read accesses
system.cpu.itb.write_hits                           0                       # DTB write hits
system.cpu.itb.write_misses                         0                       # DTB write misses
system.cpu.itb.write_acv                            0                       # DTB write access violations
system.cpu.itb.write_accesses                       0                       # DTB write accesses
system.cpu.itb.data_hits                            0                       # DTB hits
system.cpu.itb.data_misses                          0                       # DTB misses
system.cpu.itb.data_acv                             0                       # DTB access violations
system.cpu.itb.data_accesses                        0                       # DTB accesses
system.cpu.workload.num_syscalls                    0                       # Number of system calls
system.cpu.pwrStateResidencyTicks::ON    1492290393156                       # Cumulative time (in ticks) in various power states
system.cpu.numCycles                              796                       # number of cpu cycles simulated
system.cpu.numWorkItemsStarted                      0                       # number of work items this cpu started
system.cpu.numWorkItemsCompleted                    0                       # number of work items this cpu completed
system.cpu.fetch.icacheStallCycles                 62                       # Number of cycles fetch is stalled on an Icache miss
system.cpu.fetch.Insts                             17                       # Number of instructions fetch has processed
system.cpu.fetch.Cycles                             3                       # Number of cycles fetch has run and was not squashing or blocked
system.cpu.fetch.SquashCycles                       3                       # Number of cycles fetch has spent squashing
system.cpu.fetch.PendingDrainCycles                 6                       # Number of cycles fetch has spent waiting on pipes to drain
system.cpu.fetch.CacheLines                         4                       # Number of cache lines fetched
system.cpu.fetch.IcacheSquashes                     2                       # Number of outstanding Icache misses that were squashed
system.cpu.fetch.rateDist::samples                 72                       # Number of instructions fetched each cycle (Total)
system.cpu.fetch.rateDist::mean              0.236111                       # Number of instructions fetched each cycle (Total)
system.cpu.fetch.rateDist::stdev             1.326789                       # Number of instructions fetched each cycle (Total)
system.cpu.fetch.rateDist::underflows               0      0.00%      0.00% # Number of instructions fetched each cycle (Total)
system.cpu.fetch.rateDist::0                       69     95.83%     95.83% # Number of instructions fetched each cycle (Total)
system.cpu.fetch.rateDist::1                        1      1.39%     97.22% # Number of instructions fetched each cycle (Total)
system.cpu.fetch.rateDist::2                        0      0.00%     97.22% # Number of instructions fetched each cycle (Total)
system.cpu.fetch.rateDist::3                        0      0.00%     97.22% # Number of instructions fetched each cycle (Total)
system.cpu.fetch.rateDist::4                        0      0.00%     97.22% # Number of instructions fetched each cycle (Total)
system.cpu.fetch.rateDist::5                        0      0.00%     97.22% # Number of instructions fetched each cycle (Total)
system.cpu.fetch.rateDist::6                        0      0.00%     97.22% # Number of instructions fetched each cycle (Total)
system.cpu.fetch.rateDist::7                        0      0.00%     97.22% # Number of instructions fetched each cycle (Total)
system.cpu.fetch.rateDist::8                        2      2.78%    100.00% # Number of instructions fetched each cycle (Total)
system.cpu.fetch.rateDist::overflows                0      0.00%    100.00% # Number of instructions fetched each cycle (Total)
system.cpu.fetch.rateDist::min_value                0                       # Number of instructions fetched each cycle (Total)
[...]
system.switch_cpus_1.iq.rate                 1.610824                       # Inst issue rate
system.switch_cpus_1.iq.fu_busy_cnt          15165880                       # FU busy when requested
system.switch_cpus_1.iq.fu_busy_rate         0.073704                       # FU busy rate (busy events/executed inst)
system.switch_cpus_1.iq.int_inst_queue_reads    188191438                       # Number of integer instruction queue reads
system.switch_cpus_1.iq.int_inst_queue_writes     28247287                       # Number of integer instruction queue writes
system.switch_cpus_1.iq.int_inst_queue_wakeup_accesses     27844214                       # Number of integer instruction queue wakeup accesses
system.switch_cpus_1.iq.fp_inst_queue_reads    366284255                       # Number of floating instruction queue reads
system.switch_cpus_1.iq.fp_inst_queue_writes    173992410                       # Number of floating instruction queue writes
system.switch_cpus_1.iq.fp_inst_queue_wakeup_accesses    172771649                       # Number of floating instruction queue wakeup accesses
system.switch_cpus_1.iq.int_alu_accesses     31711297                       # Number of integer alu accesses
system.switch_cpus_1.iq.fp_alu_accesses     189221625                       # Number of floating point alu accesses
system.switch_cpus_1.iew.lsq.thread0.forwLoads      9188905                       # Number of loads that had data forwarded from stores
system.switch_cpus_1.iew.lsq.thread0.invAddrLoads            0                       # Number of loads ignored due to an invalid address
system.switch_cpus_1.iew.lsq.thread0.squashedLoads       416161                       # Number of loads squashed
system.switch_cpus_1.iew.lsq.thread0.ignoredResponses          396                       # Number of memory responses ignored because the instruction is squashed
system.switch_cpus_1.iew.lsq.thread0.memOrderViolation        20924                       # Number of memory ordering violations
system.switch_cpus_1.iew.lsq.thread0.squashedStores       222604                       # Number of stores squashed
system.switch_cpus_1.iew.lsq.thread0.invAddrSwpfs            0                       # Number of software prefetches ignored due to an invalid address
system.switch_cpus_1.iew.lsq.thread0.blockedLoads            0                       # Number of blocked loads due to partial load-store forwarding
system.switch_cpus_1.iew.lsq.thread0.rescheduledLoads            0                       # Number of loads that were rescheduled
system.switch_cpus_1.iew.lsq.thread0.cacheBlocked      5244734                       # Number of times an access to memory failed due to the cache being blocked
system.switch_cpus_1.iew.iewIdleCycles              0                       # Number of cycles IEW is idle
system.switch_cpus_1.iew.iewSquashCycles        25211                       # Number of cycles IEW is squashing
system.switch_cpus_1.iew.iewBlockCycles      14599252                       # Number of cycles IEW is blocking
system.switch_cpus_1.iew.iewUnblockCycles     20611546                       # Number of cycles IEW is unblocking
system.switch_cpus_1.iew.iewDispatchedInsts    201109503                       # Number of instructions dispatched to IQ
system.switch_cpus_1.iew.iewDispSquashedInsts         2061                       # Number of squashed instructions skipped by dispatch
system.switch_cpus_1.iew.iewDispLoadInsts     82550080                       # Number of dispatched load instructions
system.switch_cpus_1.iew.iewDispStoreInsts     38177360                       # Number of dispatched store instructions
system.switch_cpus_1.iew.iewDispNonSpecInsts            0                       # Number of dispatched non-speculative instructions
system.switch_cpus_1.iew.iewIQFullEvents        16898                       # Number of times the IQ has become full, causing a stall
system.switch_cpus_1.iew.iewLSQFullEvents     20532138                       # Number of times the LSQ has become full, causing a stall
system.switch_cpus_1.iew.memOrderViolationEvents        20924                       # Number of memory order violations
system.switch_cpus_1.iew.predictedTakenIncorrect         1397                       # Number of branches that were predicted taken incorrectly
system.switch_cpus_1.iew.predictedNotTakenIncorrect           68                       # Number of branches that were predicted not taken incorrectly
system.switch_cpus_1.iew.branchMispredicts         1465                       # Number of branch mispredicts detected at execute
system.switch_cpus_1.iew.iewExecutedInsts    205702989                       # Number of executed instructions
system.switch_cpus_1.iew.iewExecLoadInsts     87431767                       # Number of load instructions executed
system.switch_cpus_1.iew.iewExecSquashedInsts        64044                       # Number of squashed instructions skipped in execute
system.switch_cpus_1.iew.exec_swp                   0                       # number of swp insts executed
system.switch_cpus_1.iew.exec_nop                  27                       # number of nop insts executed
system.switch_cpus_1.iew.exec_refs          125483020                       # number of memory reference insts executed
system.switch_cpus_1.iew.exec_branches         171922                       # Number of branches executed
system.switch_cpus_1.iew.exec_stores         38051253                       # Number of stores executed
system.switch_cpus_1.iew.exec_rate           1.610323                       # Inst execution rate
system.switch_cpus_1.iew.wb_sent            200673195                       # cumulative count of insts sent to commit
system.switch_cpus_1.iew.wb_count           200615863                       # cumulative count of insts written-back
system.switch_cpus_1.iew.wb_producers       131405917                       # num instructions producing a value
system.switch_cpus_1.iew.wb_consumers       136803215                       # num instructions consuming a value
system.switch_cpus_1.iew.wb_rate             1.570499                       # insts written-back per cycle
system.switch_cpus_1.iew.wb_fanout           0.960547                       # average fanout of values written-back
system.switch_cpus_1.commit.commitSquashedInsts      1065166                       # The number of squashed insts skipped by commit
system.switch_cpus_1.commit.branchMispredicts         1459                       # The number of times a branch was mispredicted
system.switch_cpus_1.commit.committed_per_cycle::samples    127593290                       # Number of insts commited each cycle
system.switch_cpus_1.commit.committed_per_cycle::mean     1.567481                       # Number of insts commited each cycle
system.switch_cpus_1.commit.committed_per_cycle::stdev     2.899877                       # Number of insts commited each cycle
system.switch_cpus_1.commit.committed_per_cycle::underflows            0      0.00%      0.00% # Number of insts commited each cycle
system.switch_cpus_1.commit.committed_per_cycle::0     93129066     72.99%     72.99% # Number of insts commited each cycle
system.switch_cpus_1.commit.committed_per_cycle::1      2872634      2.25%     75.24% # Number of insts commited each cycle
system.switch_cpus_1.commit.committed_per_cycle::2      3113836      2.44%     77.68% # Number of insts commited each cycle
system.switch_cpus_1.commit.committed_per_cycle::3      2407585      1.89%     79.57% # Number of insts commited each cycle
system.switch_cpus_1.commit.committed_per_cycle::4      2976844      2.33%     81.90% # Number of insts commited each cycle
system.switch_cpus_1.commit.committed_per_cycle::5      2477611      1.94%     83.84% # Number of insts commited each cycle
system.switch_cpus_1.commit.committed_per_cycle::6      1827876      1.43%     85.28% # Number of insts commited each cycle
system.switch_cpus_1.commit.committed_per_cycle::7      1888428      1.48%     86.76% # Number of insts commited each cycle
system.switch_cpus_1.commit.committed_per_cycle::8     16899410     13.24%    100.00% # Number of insts commited each cycle
system.switch_cpus_1.commit.committed_per_cycle::overflows            0      0.00%    100.00% # Number of insts commited each cycle
system.switch_cpus_1.commit.committed_per_cycle::min_value            0                       # Number of insts commited each cycle
system.switch_cpus_1.commit.committed_per_cycle::max_value            8                       # Number of insts commited each cycle
system.switch_cpus_1.commit.committed_per_cycle::total    127593290                       # Number of insts commited each cycle
system.switch_cpus_1.commit.committedInsts    200000024                       # Number of instructions committed
system.switch_cpus_1.commit.committedOps    200000024                       # Number of ops (including micro ops) committed
system.switch_cpus_1.commit.swp_count               0                       # Number of s/w prefetches committed
system.switch_cpus_1.commit.refs            120088640                       # Number of memory references committed
system.switch_cpus_1.commit.loads            82133897                       # Number of loads committed
system.switch_cpus_1.commit.membars                 0                       # Number of memory barriers committed
system.switch_cpus_1.commit.branches           167612                       # Number of branches committed
system.switch_cpus_1.commit.fp_insts        172405126                       # Number of committed floating point instructions.
system.switch_cpus_1.commit.int_insts       135398704                       # Number of committed integer instructions.
system.switch_cpus_1.commit.function_calls            0                       # Number of function calls committed.
system.switch_cpus_1.commit.op_class_0::No_OpClass           18      0.00%      0.00% # Class of committed instruction
system.switch_cpus_1.commit.op_class_0::IntAlu     15310537      7.66%      7.66% # Class of committed instruction
system.switch_cpus_1.commit.op_class_0::IntMult          186      0.00%      7.66% # Class of committed instruction
system.switch_cpus_1.commit.op_class_0::IntDiv            0      0.00%      7.66% # Class of committed instruction
system.switch_cpus_1.commit.op_class_0::FloatAdd     36073856     18.04%     25.69% # Class of committed instruction
system.switch_cpus_1.commit.op_class_0::FloatCmp            0      0.00%     25.69% # Class of committed instruction
system.switch_cpus_1.commit.op_class_0::FloatCvt            0      0.00%     25.69% # Class of committed instruction
system.switch_cpus_1.commit.op_class_0::FloatMult     28449010     14.22%     39.92% # Class of committed instruction
system.switch_cpus_1.commit.op_class_0::FloatMultAcc            0      0.00%     39.92% # Class of committed instruction
system.switch_cpus_1.commit.op_class_0::FloatDiv        77777      0.04%     39.96% # Class of committed instruction
system.switch_cpus_1.commit.op_class_0::FloatMisc            0      0.00%     39.96% # Class of committed instruction
system.switch_cpus_1.commit.op_class_0::FloatSqrt            0      0.00%     39.96% # Class of committed instruction
system.switch_cpus_1.commit.op_class_0::SimdAdd            0      0.00%     39.96% # Class of committed instruction
system.switch_cpus_1.commit.op_class_0::SimdAddAcc            0      0.00%     39.96% # Class of committed instruction
system.switch_cpus_1.commit.op_class_0::SimdAlu            0      0.00%     39.96% # Class of committed instruction
system.switch_cpus_1.commit.op_class_0::SimdCmp            0      0.00%     39.96% # Class of committed instruction
system.switch_cpus_1.commit.op_class_0::SimdCvt            0      0.00%     39.96% # Class of committed instruction
system.switch_cpus_1.commit.op_class_0::SimdMisc            0      0.00%     39.96% # Class of committed instruction
system.switch_cpus_1.commit.op_class_0::SimdMult            0      0.00%     39.96% # Class of committed instruction
system.switch_cpus_1.commit.op_class_0::SimdMultAcc            0      0.00%     39.96% # Class of committed instruction
system.switch_cpus_1.commit.op_class_0::SimdShift            0      0.00%     39.96% # Class of committed instruction
system.switch_cpus_1.commit.op_class_0::SimdShiftAcc            0      0.00%     39.96% # Class of committed instruction
system.switch_cpus_1.commit.op_class_0::SimdSqrt            0      0.00%     39.96% # Class of committed instruction
system.switch_cpus_1.commit.op_class_0::SimdFloatAdd            0      0.00%     39.96% # Class of committed instruction
system.switch_cpus_1.commit.op_class_0::SimdFloatAlu            0      0.00%     39.96% # Class of committed instruction
system.switch_cpus_1.commit.op_class_0::SimdFloatCmp            0      0.00%     39.96% # Class of committed instruction
system.switch_cpus_1.commit.op_class_0::SimdFloatCvt            0      0.00%     39.96% # Class of committed instruction
system.switch_cpus_1.commit.op_class_0::SimdFloatDiv            0      0.00%     39.96% # Class of committed instruction
system.switch_cpus_1.commit.op_class_0::SimdFloatMisc            0      0.00%     39.96% # Class of committed instruction
system.switch_cpus_1.commit.op_class_0::SimdFloatMult            0      0.00%     39.96% # Class of committed instruction
system.switch_cpus_1.commit.op_class_0::SimdFloatMultAcc            0      0.00%     39.96% # Class of committed instruction
system.switch_cpus_1.commit.op_class_0::SimdFloatSqrt            0      0.00%     39.96% # Class of committed instruction
system.switch_cpus_1.commit.op_class_0::MemRead      8202704      4.10%     44.06% # Class of committed instruction
system.switch_cpus_1.commit.op_class_0::MemWrite      4081453      2.04%     46.10% # Class of committed instruction
system.switch_cpus_1.commit.op_class_0::FloatMemRead     73931193     36.97%     83.06% # Class of committed instruction
system.switch_cpus_1.commit.op_class_0::FloatMemWrite     33873290     16.94%    100.00% # Class of committed instruction
system.switch_cpus_1.commit.op_class_0::IprAccess            0      0.00%    100.00% # Class of committed instruction
system.switch_cpus_1.commit.op_class_0::InstPrefetch            0      0.00%    100.00% # Class of committed instruction
system.switch_cpus_1.commit.op_class_0::total    200000024                       # Class of committed instruction
system.switch_cpus_1.commit.bw_lim_events     16899410                       # number cycles where commit BW limit reached
system.switch_cpus_1.rob.rob_reads          311681070                       # The number of ROB reads
system.switch_cpus_1.rob.rob_writes         402278236                       # The number of ROB writes
system.switch_cpus_1.timesIdled                     2                       # Number of times that the entire CPU went into an idle state and unscheduled itself
system.switch_cpus_1.idleCycles                   211                       # Total number of cycles that the CPU has spent unscheduled due to idling
system.switch_cpus_1.committedInsts         200000006                       # Number of Instructions Simulated
system.switch_cpus_1.committedOps           200000006                       # Number of Ops (including micro ops) Simulated
system.switch_cpus_1.cpi                     0.638701                       # CPI: Cycles Per Instruction
system.switch_cpus_1.cpi_total               0.638701                       # CPI: Total CPI of All Threads
system.switch_cpus_1.ipc                     1.565678                       # IPC: Instructions Per Cycle
system.switch_cpus_1.ipc_total               1.565678                       # IPC: Total IPC of All Threads
system.switch_cpus_1.int_regfile_reads      145525564                       # number of integer regfile reads
system.switch_cpus_1.int_regfile_writes      23580313                       # number of integer regfile writes
system.switch_cpus_1.fp_regfile_reads       163403165                       # number of floating regfile reads
system.switch_cpus_1.fp_regfile_writes      138859237                       # number of floating regfile writes
system.tol3bus.snoop_filter.tot_requests      7960074                       # Total number of requests made to the snoop filter.
system.tol3bus.snoop_filter.hit_single_requests      3978101                       # Number of requests hitting in the snoop filter with a single holder of the requested data.
system.tol3bus.snoop_filter.hit_multi_requests            0                       # Number of requests hitting in the snoop filter with multiple (>1) holders of the requested data.
system.tol3bus.snoop_filter.tot_snoops         213895                       # Total number of snoops made to the snoop filter.
system.tol3bus.snoop_filter.hit_single_snoops       213895                       # Number of snoops hitting in the snoop filter with a single holder of the requested data.
system.tol3bus.snoop_filter.hit_multi_snoops            0                       # Number of snoops hitting in the snoop filter with multiple (>1) holders of the requested data.
system.tol3bus.pwrStateResidencyTicks::UNDEFINED 34795668317517                       # Cumulative time (in ticks) in various power states
system.tol3bus.trans_dist::ReadResp           2827132                       # Transaction distribution
system.tol3bus.trans_dist::WritebackDirty      2582070                       # Transaction distribution
system.tol3bus.trans_dist::CleanEvict         4565327                       # Transaction distribution
system.tol3bus.trans_dist::ReadExReq          1154841                       # Transaction distribution
system.tol3bus.trans_dist::ReadExResp         1154841                       # Transaction distribution
system.tol3bus.trans_dist::ReadSharedReq      2827132                       # Transaction distribution
system.tol3bus.pkt_count_system.cpu.l2.mem_side::system.l3.cpu_side     11942047                       # Packet count per connected master and slave (bytes)
system.tol3bus.pkt_size_system.cpu.l2.mem_side::system.l3.cpu_side    350084160                       # Cumulative packet size per connected master and slave (bytes)
system.tol3bus.snoops                         3169296                       # Total snoops (count)
system.tol3bus.snoopTraffic                  70014592                       # Total snoop traffic (bytes)
system.tol3bus.snoop_fanout::samples          7151269                       # Request fanout histogram
system.tol3bus.snoop_fanout::mean            0.029910                       # Request fanout histogram
system.tol3bus.snoop_fanout::stdev           0.170339                       # Request fanout histogram
system.tol3bus.snoop_fanout::underflows             0      0.00%      0.00% # Request fanout histogram
system.tol3bus.snoop_fanout::0                6937374     97.01%     97.01% # Request fanout histogram
system.tol3bus.snoop_fanout::1                 213895      2.99%    100.00% # Request fanout histogram
system.tol3bus.snoop_fanout::overflows              0      0.00%    100.00% # Request fanout histogram
system.tol3bus.snoop_fanout::min_value              0                       # Request fanout histogram
system.tol3bus.snoop_fanout::max_value              1                       # Request fanout histogram
system.tol3bus.snoop_fanout::total            7151269                       # Request fanout histogram
system.tol3bus.reqLayer0.occupancy         3146239278                       # Layer occupancy (ticks)
system.tol3bus.reqLayer0.utilization              0.2                       # Layer utilization (%)
system.tol3bus.respLayer0.occupancy        2651994018                       # Layer occupancy (ticks)
system.tol3bus.respLayer0.utilization             0.2                       # Layer utilization (%)

---------- End Simulation Statistics   ----------
