
---------- Begin Simulation Statistics ----------
sim_seconds                                  1.779758                       # Number of seconds simulated
sim_ticks                                1779757602858                       # Number of ticks simulated
final_tick                               75049911403560                       # Number of ticks from beginning of simulation (restored from checkpoints and never reset)
sim_freq                                 1000000000000                       # Frequency of simulated ticks
host_inst_rate                                 385054                       # Simulator instruction rate (inst/s)
host_op_rate                                   385054                       # Simulator op (including micro ops) rate (op/s)
host_tick_rate                              571085669                       # Simulator tick rate (ticks/s)
host_mem_usage                                2403760                       # Number of bytes of host memory used
host_seconds                                  3116.45                       # Real time elapsed on the host
sim_insts                                  1200000010                       # Number of instructions simulated
sim_ops                                    1200000010                       # Number of ops (including micro ops) simulated
system.voltage_domain.voltage                       1                       # Voltage in Volts
system.clk_domain.clock                          1000                       # Clock period in ticks
system.mem_ctrls0.pwrStateResidencyTicks::UNDEFINED 75049911403560                       # Cumulative time (in ticks) in various power states
system.mem_ctrls0.bytes_read::cpu.inst            128                       # Number of bytes read from this memory
system.mem_ctrls0.bytes_read::cpu.data            192                       # Number of bytes read from this memory
system.mem_ctrls0.bytes_read::switch_cpus.inst        43968                       # Number of bytes read from this memory
system.mem_ctrls0.bytes_read::switch_cpus.data    232754368                       # Number of bytes read from this memory
system.mem_ctrls0.bytes_read::switch_cpus_1.inst         3392                       # Number of bytes read from this memory
system.mem_ctrls0.bytes_read::switch_cpus_1.data     40910272                       # Number of bytes read from this memory
system.mem_ctrls0.bytes_read::total         273712320                       # Number of bytes read from this memory
system.mem_ctrls0.bytes_inst_read::cpu.inst          128                       # Number of instructions bytes read from this memory
system.mem_ctrls0.bytes_inst_read::switch_cpus.inst        43968                       # Number of instructions bytes read from this memory
system.mem_ctrls0.bytes_inst_read::switch_cpus_1.inst         3392                       # Number of instructions bytes read from this memory
system.mem_ctrls0.bytes_inst_read::total        47488                       # Number of instructions bytes read from this memory
system.mem_ctrls0.bytes_written::writebacks     87358784                       # Number of bytes written to this memory
system.mem_ctrls0.bytes_written::total       87358784                       # Number of bytes written to this memory
system.mem_ctrls0.num_reads::cpu.inst               2                       # Number of read requests responded to by this memory
system.mem_ctrls0.num_reads::cpu.data               3                       # Number of read requests responded to by this memory
system.mem_ctrls0.num_reads::switch_cpus.inst          687                       # Number of read requests responded to by this memory
system.mem_ctrls0.num_reads::switch_cpus.data      3636787                       # Number of read requests responded to by this memory
system.mem_ctrls0.num_reads::switch_cpus_1.inst           53                       # Number of read requests responded to by this memory
system.mem_ctrls0.num_reads::switch_cpus_1.data       639223                       # Number of read requests responded to by this memory
system.mem_ctrls0.num_reads::total            4276755                       # Number of read requests responded to by this memory
system.mem_ctrls0.num_writes::writebacks      1364981                       # Number of write requests responded to by this memory
system.mem_ctrls0.num_writes::total           1364981                       # Number of write requests responded to by this memory
system.mem_ctrls0.bw_read::cpu.inst                72                       # Total read bandwidth from this memory (bytes/s)
system.mem_ctrls0.bw_read::cpu.data               108                       # Total read bandwidth from this memory (bytes/s)
system.mem_ctrls0.bw_read::switch_cpus.inst        24704                       # Total read bandwidth from this memory (bytes/s)
system.mem_ctrls0.bw_read::switch_cpus.data    130778690                       # Total read bandwidth from this memory (bytes/s)
system.mem_ctrls0.bw_read::switch_cpus_1.inst         1906                       # Total read bandwidth from this memory (bytes/s)
system.mem_ctrls0.bw_read::switch_cpus_1.data     22986429                       # Total read bandwidth from this memory (bytes/s)
system.mem_ctrls0.bw_read::total            153791909                       # Total read bandwidth from this memory (bytes/s)
system.mem_ctrls0.bw_inst_read::cpu.inst           72                       # Instruction read bandwidth from this memory (bytes/s)
system.mem_ctrls0.bw_inst_read::switch_cpus.inst        24704                       # Instruction read bandwidth from this memory (bytes/s)
system.mem_ctrls0.bw_inst_read::switch_cpus_1.inst         1906                       # Instruction read bandwidth from this memory (bytes/s)
system.mem_ctrls0.bw_inst_read::total           26682                       # Instruction read bandwidth from this memory (bytes/s)
system.mem_ctrls0.bw_write::writebacks       49084653                       # Write bandwidth from this memory (bytes/s)
system.mem_ctrls0.bw_write::total            49084653                       # Write bandwidth from this memory (bytes/s)
system.mem_ctrls0.bw_total::writebacks       49084653                       # Total bandwidth to/from this memory (bytes/s)
system.mem_ctrls0.bw_total::cpu.inst               72                       # Total bandwidth to/from this memory (bytes/s)
system.mem_ctrls0.bw_total::cpu.data              108                       # Total bandwidth to/from this memory (bytes/s)
system.mem_ctrls0.bw_total::switch_cpus.inst        24704                       # Total bandwidth to/from this memory (bytes/s)
system.mem_ctrls0.bw_total::switch_cpus.data    130778690                       # Total bandwidth to/from this memory (bytes/s)
system.mem_ctrls0.bw_total::switch_cpus_1.inst         1906                       # Total bandwidth to/from this memory (bytes/s)
system.mem_ctrls0.bw_total::switch_cpus_1.data     22986429                       # Total bandwidth to/from this memory (bytes/s)
system.mem_ctrls0.bw_total::total           202876562                       # Total bandwidth to/from this memory (bytes/s)
system.mem_ctrls0.readReqs                    4276757                       # Number of read requests accepted
system.mem_ctrls0.writeReqs                   1364981                       # Number of write requests accepted
system.mem_ctrls0.readBursts                  4276757                       # Number of DRAM read bursts, including those serviced by the write queue
system.mem_ctrls0.writeBursts                 1364981                       # Number of DRAM write bursts, including those merged in the write queue
system.mem_ctrls0.bytesReadDRAM             273682880                       # Total number of bytes read from DRAM
system.mem_ctrls0.bytesReadWrQ                  29568                       # Total number of bytes read from write queue
system.mem_ctrls0.bytesWritten               87357056                       # Total number of bytes written to DRAM
system.mem_ctrls0.bytesReadSys              273712448                       # Total read bytes from the system interface side
system.mem_ctrls0.bytesWrittenSys            87358784                       # Total written bytes from the system interface side
system.mem_ctrls0.servicedByWrQ                   462                       # Number of DRAM read bursts serviced by the write queue
system.mem_ctrls0.mergedWrBursts                    0                       # Number of DRAM write bursts merged with an existing one
system.mem_ctrls0.neitherReadNorWriteReqs            0                       # Number of requests that are neither read nor write
system.mem_ctrls0.perBankRdBursts::0           273813                       # Per bank write bursts
system.mem_ctrls0.perBankRdBursts::1           270323                       # Per bank write bursts
system.mem_ctrls0.perBankRdBursts::2           267542                       # Per bank write bursts
system.mem_ctrls0.perBankRdBursts::3           267319                       # Per bank write bursts
system.mem_ctrls0.perBankRdBursts::4           266906                       # Per bank write bursts
system.mem_ctrls0.perBankRdBursts::5           267970                       # Per bank write bursts
system.mem_ctrls0.perBankRdBursts::6           267993                       # Per bank write bursts
system.mem_ctrls0.perBankRdBursts::7           268808                       # Per bank write bursts
system.mem_ctrls0.perBankRdBursts::8           270250                       # Per bank write bursts
system.mem_ctrls0.perBankRdBursts::9           267307                       # Per bank write bursts
system.mem_ctrls0.perBankRdBursts::10          262438                       # Per bank write bursts
system.mem_ctrls0.perBankRdBursts::11          260042                       # Per bank write bursts
system.mem_ctrls0.perBankRdBursts::12          260944                       # Per bank write bursts
system.mem_ctrls0.perBankRdBursts::13          265124                       # Per bank write bursts
system.mem_ctrls0.perBankRdBursts::14          269504                       # Per bank write bursts
system.mem_ctrls0.perBankRdBursts::15          270012                       # Per bank write bursts
system.mem_ctrls0.perBankWrBursts::0            88535                       # Per bank write bursts
system.mem_ctrls0.perBankWrBursts::1            86993                       # Per bank write bursts
system.mem_ctrls0.perBankWrBursts::2            86467                       # Per bank write bursts
system.mem_ctrls0.perBankWrBursts::3            86988                       # Per bank write bursts
system.mem_ctrls0.perBankWrBursts::4            87085                       # Per bank write bursts
system.mem_ctrls0.perBankWrBursts::5            86746                       # Per bank write bursts
system.mem_ctrls0.perBankWrBursts::6            84094                       # Per bank write bursts
system.mem_ctrls0.perBankWrBursts::7            83376                       # Per bank write bursts
system.mem_ctrls0.perBankWrBursts::8            83907                       # Per bank write bursts
system.mem_ctrls0.perBankWrBursts::9            84277                       # Per bank write bursts
system.mem_ctrls0.perBankWrBursts::10           83645                       # Per bank write bursts
system.mem_ctrls0.perBankWrBursts::11           82593                       # Per bank write bursts
system.mem_ctrls0.perBankWrBursts::12           82845                       # Per bank write bursts
system.mem_ctrls0.perBankWrBursts::13           84315                       # Per bank write bursts
system.mem_ctrls0.perBankWrBursts::14           86420                       # Per bank write bursts
system.mem_ctrls0.perBankWrBursts::15           86668                       # Per bank write bursts
system.mem_ctrls0.numRdRetry                        0                       # Number of times read queue was full causing retry
system.mem_ctrls0.numWrRetry                        0                       # Number of times write queue was full causing retry
system.mem_ctrls0.totGap                 1779757488408                       # Total gap between requests
system.mem_ctrls0.readPktSize::0                    0                       # Read request sizes (log2)
system.mem_ctrls0.readPktSize::1                    0                       # Read request sizes (log2)
system.mem_ctrls0.readPktSize::2                    0                       # Read request sizes (log2)
system.mem_ctrls0.readPktSize::3                    0                       # Read request sizes (log2)
system.mem_ctrls0.readPktSize::4                    0                       # Read request sizes (log2)
system.mem_ctrls0.readPktSize::5                    0                       # Read request sizes (log2)
system.mem_ctrls0.readPktSize::6              4276757                       # Read request sizes (log2)
system.mem_ctrls0.writePktSize::0                   0                       # Write request sizes (log2)
system.mem_ctrls0.writePktSize::1                   0                       # Write request sizes (log2)
system.mem_ctrls0.writePktSize::2                   0                       # Write request sizes (log2)
system.mem_ctrls0.writePktSize::3                   0                       # Write request sizes (log2)
system.mem_ctrls0.writePktSize::4                   0                       # Write request sizes (log2)
system.mem_ctrls0.writePktSize::5                   0                       # Write request sizes (log2)
system.mem_ctrls0.writePktSize::6             1364981                       # Write request sizes (log2)
system.mem_ctrls0.rdQLenPdf::0                4080779                       # What read queue length does an incoming req see
system.mem_ctrls0.rdQLenPdf::1                 156292                       # What read queue length does an incoming req see
system.mem_ctrls0.rdQLenPdf::2                  36409                       # What read queue length does an incoming req see
system.mem_ctrls0.rdQLenPdf::3                   2812                       # What read queue length does an incoming req see
system.mem_ctrls0.rdQLenPdf::4                      3                       # What read queue length does an incoming req see
system.mem_ctrls0.rdQLenPdf::5                      0                       # What read queue length does an incoming req see
system.mem_ctrls0.rdQLenPdf::6                      0                       # What read queue length does an incoming req see
system.mem_ctrls0.rdQLenPdf::7                      0                       # What read queue length does an incoming req see
system.mem_ctrls0.rdQLenPdf::8                      0                       # What read queue length does an incoming req see
system.mem_ctrls0.rdQLenPdf::9                      0                       # What read queue length does an incoming req see
system.mem_ctrls0.rdQLenPdf::10                     0                       # What read queue length does an incoming req see
system.mem_ctrls0.rdQLenPdf::11                     0                       # What read queue length does an incoming req see
system.mem_ctrls0.rdQLenPdf::12                     0                       # What read queue length does an incoming req see
system.mem_ctrls0.rdQLenPdf::13                     0                       # What read queue length does an incoming req see
system.mem_ctrls0.rdQLenPdf::14                     0                       # What read queue length does an incoming req see
system.mem_ctrls0.rdQLenPdf::15                     0                       # What read queue length does an incoming req see
system.mem_ctrls0.rdQLenPdf::16                     0                       # What read queue length does an incoming req see
system.mem_ctrls0.rdQLenPdf::17                     0                       # What read queue length does an incoming req see
system.mem_ctrls0.rdQLenPdf::18                     0                       # What read queue length does an incoming req see
system.mem_ctrls0.rdQLenPdf::19                     0                       # What read queue length does an incoming req see
system.mem_ctrls0.rdQLenPdf::20                     0                       # What read queue length does an incoming req see
system.mem_ctrls0.rdQLenPdf::21                     0                       # What read queue length does an incoming req see
system.mem_ctrls0.rdQLenPdf::22                     0                       # What read queue length does an incoming req see
system.mem_ctrls0.rdQLenPdf::23                     0                       # What read queue length does an incoming req see
system.mem_ctrls0.rdQLenPdf::24                     0                       # What read queue length does an incoming req see
system.mem_ctrls0.rdQLenPdf::25                     0                       # What read queue length does an incoming req see
system.mem_ctrls0.rdQLenPdf::26                     0                       # What read queue length does an incoming req see
system.mem_ctrls0.rdQLenPdf::27                     0                       # What read queue length does an incoming req see
system.mem_ctrls0.rdQLenPdf::28                     0                       # What read queue length does an incoming req see
system.mem_ctrls0.rdQLenPdf::29                     0                       # What read queue length does an incoming req see
system.mem_ctrls0.rdQLenPdf::30                     0                       # What read queue length does an incoming req see
system.mem_ctrls0.rdQLenPdf::31                     0                       # What read queue length does an incoming req see
system.mem_ctrls0.wrQLenPdf::0                      2                       # What write queue length does an incoming req see
system.mem_ctrls0.wrQLenPdf::1                      2                       # What write queue length does an incoming req see
system.mem_ctrls0.wrQLenPdf::2                      2                       # What write queue length does an incoming req see
system.mem_ctrls0.wrQLenPdf::3                      2                       # What write queue length does an incoming req see
system.mem_ctrls0.wrQLenPdf::4                      2                       # What write queue length does an incoming req see
system.mem_ctrls0.wrQLenPdf::5                      2                       # What write queue length does an incoming req see
system.mem_ctrls0.wrQLenPdf::6                      2                       # What write queue length does an incoming req see
system.mem_ctrls0.wrQLenPdf::7                      2                       # What write queue length does an incoming req see
system.mem_ctrls0.wrQLenPdf::8                      2                       # What write queue length does an incoming req see
system.mem_ctrls0.wrQLenPdf::9                      2                       # What write queue length does an incoming req see
system.mem_ctrls0.wrQLenPdf::10                     2                       # What write queue length does an incoming req see
system.mem_ctrls0.wrQLenPdf::11                     2                       # What write queue length does an incoming req see
system.mem_ctrls0.wrQLenPdf::12                     2                       # What write queue length does an incoming req see
system.mem_ctrls0.wrQLenPdf::13                     2                       # What write queue length does an incoming req see
system.mem_ctrls0.wrQLenPdf::14                     2                       # What write queue length does an incoming req see
system.mem_ctrls0.wrQLenPdf::15                 39587                       # What write queue length does an incoming req see
system.mem_ctrls0.wrQLenPdf::16                 41425                       # What write queue length does an incoming req see
system.mem_ctrls0.wrQLenPdf::17                 74896                       # What write queue length does an incoming req see
system.mem_ctrls0.wrQLenPdf::18                 79478                       # What write queue length does an incoming req see
system.mem_ctrls0.wrQLenPdf::19                 80435                       # What write queue length does an incoming req see
system.mem_ctrls0.wrQLenPdf::20                 80631                       # What write queue length does an incoming req see
system.mem_ctrls0.wrQLenPdf::21                 80627                       # What write queue length does an incoming req see
system.mem_ctrls0.wrQLenPdf::22                 80615                       # What write queue length does an incoming req see
system.mem_ctrls0.wrQLenPdf::23                 80616                       # What write queue length does an incoming req see
system.mem_ctrls0.wrQLenPdf::24                 80708                       # What write queue length does an incoming req see
system.mem_ctrls0.wrQLenPdf::25                 80816                       # What write queue length does an incoming req see
system.mem_ctrls0.wrQLenPdf::26                 80761                       # What write queue length does an incoming req see
system.mem_ctrls0.wrQLenPdf::27                 80826                       # What write queue length does an incoming req see
system.mem_ctrls0.wrQLenPdf::28                 81062                       # What write queue length does an incoming req see
system.mem_ctrls0.wrQLenPdf::29                 81380                       # What write queue length does an incoming req see
system.mem_ctrls0.wrQLenPdf::30                 80729                       # What write queue length does an incoming req see
system.mem_ctrls0.wrQLenPdf::31                 80184                       # What write queue length does an incoming req see
system.mem_ctrls0.wrQLenPdf::32                 80081                       # What write queue length does an incoming req see
system.mem_ctrls0.wrQLenPdf::33                    83                       # What write queue length does an incoming req see
system.mem_ctrls0.wrQLenPdf::34                    10                       # What write queue length does an incoming req see
system.mem_ctrls0.wrQLenPdf::35                     1                       # What write queue length does an incoming req see
system.mem_ctrls0.wrQLenPdf::36                     0                       # What write queue length does an incoming req see
system.mem_ctrls0.wrQLenPdf::37                     0                       # What write queue length does an incoming req see
system.mem_ctrls0.wrQLenPdf::38                     0                       # What write queue length does an incoming req see
system.mem_ctrls0.wrQLenPdf::39                     0                       # What write queue length does an incoming req see
system.mem_ctrls0.wrQLenPdf::40                     0                       # What write queue length does an incoming req see
system.mem_ctrls0.wrQLenPdf::41                     0                       # What write queue length does an incoming req see
system.mem_ctrls0.wrQLenPdf::42                     0                       # What write queue length does an incoming req see
system.mem_ctrls0.wrQLenPdf::43                     0                       # What write queue length does an incoming req see
system.mem_ctrls0.wrQLenPdf::44                     0                       # What write queue length does an incoming req see
system.mem_ctrls0.wrQLenPdf::45                     0                       # What write queue length does an incoming req see
system.mem_ctrls0.wrQLenPdf::46                     0                       # What write queue length does an incoming req see
system.mem_ctrls0.wrQLenPdf::47                     0                       # What write queue length does an incoming req see
system.mem_ctrls0.wrQLenPdf::48                     0                       # What write queue length does an incoming req see
system.mem_ctrls0.wrQLenPdf::49                     0                       # What write queue length does an incoming req see
system.mem_ctrls0.wrQLenPdf::50                     0                       # What write queue length does an incoming req see
system.mem_ctrls0.wrQLenPdf::51                     0                       # What write queue length does an incoming req see
system.mem_ctrls0.wrQLenPdf::52                     0                       # What write queue length does an incoming req see
system.mem_ctrls0.wrQLenPdf::53                     0                       # What write queue length does an incoming req see
system.mem_ctrls0.wrQLenPdf::54                     0                       # What write queue length does an incoming req see
system.mem_ctrls0.wrQLenPdf::55                     0                       # What write queue length does an incoming req see
system.mem_ctrls0.wrQLenPdf::56                     0                       # What write queue length does an incoming req see
system.mem_ctrls0.wrQLenPdf::57                     0                       # What write queue length does an incoming req see
system.mem_ctrls0.wrQLenPdf::58                     0                       # What write queue length does an incoming req see
system.mem_ctrls0.wrQLenPdf::59                     0                       # What write queue length does an incoming req see
system.mem_ctrls0.wrQLenPdf::60                     0                       # What write queue length does an incoming req see
system.mem_ctrls0.wrQLenPdf::61                     0                       # What write queue length does an incoming req see
system.mem_ctrls0.wrQLenPdf::62                     0                       # What write queue length does an incoming req see
system.mem_ctrls0.wrQLenPdf::63                     0                       # What write queue length does an incoming req see
system.mem_ctrls0.bytesPerActivate::samples      2549866                       # Bytes accessed per row activation
system.mem_ctrls0.bytesPerActivate::mean   141.591051                       # Bytes accessed per row activation
system.mem_ctrls0.bytesPerActivate::gmean   106.943618                       # Bytes accessed per row activation
system.mem_ctrls0.bytesPerActivate::stdev   143.006135                       # Bytes accessed per row activation
system.mem_ctrls0.bytesPerActivate::0-127      1362912     53.45%     53.45% # Bytes accessed per row activation
system.mem_ctrls0.bytesPerActivate::128-255       837657     32.85%     86.30% # Bytes accessed per row activation
system.mem_ctrls0.bytesPerActivate::256-383       146428      5.74%     92.04% # Bytes accessed per row activation
system.mem_ctrls0.bytesPerActivate::384-511        72152      2.83%     94.87% # Bytes accessed per row activation
system.mem_ctrls0.bytesPerActivate::512-639        68165      2.67%     97.55% # Bytes accessed per row activation
system.mem_ctrls0.bytesPerActivate::640-767        27352      1.07%     98.62% # Bytes accessed per row activation
system.mem_ctrls0.bytesPerActivate::768-895        21803      0.86%     99.47% # Bytes accessed per row activation
system.mem_ctrls0.bytesPerActivate::896-1023         7171      0.28%     99.76% # Bytes accessed per row activation
system.mem_ctrls0.bytesPerActivate::1024-1151         6226      0.24%    100.00% # Bytes accessed per row activation
system.mem_ctrls0.bytesPerActivate::total      2549866                       # Bytes accessed per row activation
system.mem_ctrls0.rdPerTurnAround::samples        80012                       # Reads before turning the bus around for writes
system.mem_ctrls0.rdPerTurnAround::mean     53.445133                       # Reads before turning the bus around for writes
system.mem_ctrls0.rdPerTurnAround::gmean    47.821731                       # Reads before turning the bus around for writes
system.mem_ctrls0.rdPerTurnAround::stdev   114.389403                       # Reads before turning the bus around for writes
system.mem_ctrls0.rdPerTurnAround::0-1023        80011    100.00%    100.00% # Reads before turning the bus around for writes
system.mem_ctrls0.rdPerTurnAround::30720-31743            1      0.00%    100.00% # Reads before turning the bus around for writes
system.mem_ctrls0.rdPerTurnAround::total        80012                       # Reads before turning the bus around for writes
system.mem_ctrls0.wrPerTurnAround::samples        80012                       # Writes before turning the bus around for reads
system.mem_ctrls0.wrPerTurnAround::mean     17.059366                       # Writes before turning the bus around for reads
system.mem_ctrls0.wrPerTurnAround::gmean    17.026493                       # Writes before turning the bus around for reads
system.mem_ctrls0.wrPerTurnAround::stdev     1.061730                       # Writes before turning the bus around for reads
system.mem_ctrls0.wrPerTurnAround::16           38781     48.47%     48.47% # Writes before turning the bus around for reads
system.mem_ctrls0.wrPerTurnAround::17            1405      1.76%     50.22% # Writes before turning the bus around for reads
system.mem_ctrls0.wrPerTurnAround::18           36450     45.56%     95.78% # Writes before turning the bus around for reads
system.mem_ctrls0.wrPerTurnAround::19            3088      3.86%     99.64% # Writes before turning the bus around for reads
system.mem_ctrls0.wrPerTurnAround::20             253      0.32%     99.96% # Writes before turning the bus around for reads
system.mem_ctrls0.wrPerTurnAround::21              30      0.04%     99.99% # Writes before turning the bus around for reads
system.mem_ctrls0.wrPerTurnAround::22               4      0.00%    100.00% # Writes before turning the bus around for reads
system.mem_ctrls0.wrPerTurnAround::23               1      0.00%    100.00% # Writes before turning the bus around for reads
system.mem_ctrls0.wrPerTurnAround::total        80012                       # Writes before turning the bus around for reads
system.mem_ctrls0.totQLat                 94470518898                       # Total ticks spent queuing
system.mem_ctrls0.totMemAccLat           174651050148                       # Total ticks spent from burst creation until serviced by the DRAM
system.mem_ctrls0.totBusLat               21381475000                       # Total ticks spent in databus transfers
system.mem_ctrls0.avgQLat                    22091.67                       # Average queueing delay per DRAM burst
system.mem_ctrls0.avgBusLat                   5000.00                       # Average bus latency per DRAM burst
system.mem_ctrls0.avgMemAccLat               40841.67                       # Average memory access latency per DRAM burst
system.mem_ctrls0.avgRdBW                      153.78                       # Average DRAM read bandwidth in MiByte/s
system.mem_ctrls0.avgWrBW                       49.08                       # Average achieved write bandwidth in MiByte/s
system.mem_ctrls0.avgRdBWSys                   153.79                       # Average system read bandwidth in MiByte/s
system.mem_ctrls0.avgWrBWSys                    49.08                       # Average system write bandwidth in MiByte/s
system.mem_ctrls0.peakBW                     12800.00                       # Theoretical peak bandwidth in MiByte/s
system.mem_ctrls0.busUtil                        1.58                       # Data bus utilization in percentage
system.mem_ctrls0.busUtilRead                    1.20                       # Data bus utilization in percentage for reads
system.mem_ctrls0.busUtilWrite                   0.38                       # Data bus utilization in percentage for writes
system.mem_ctrls0.avgRdQLen                      1.02                       # Average read queue length when enqueuing
system.mem_ctrls0.avgWrQLen                     24.56                       # Average write queue length when enqueuing
system.mem_ctrls0.readRowHits                 2668947                       # Number of row buffer hits during reads
system.mem_ctrls0.writeRowHits                 422429                       # Number of row buffer hits during writes
system.mem_ctrls0.readRowHitRate                62.41                       # Row buffer hit rate for reads
system.mem_ctrls0.writeRowHitRate               30.95                       # Row buffer hit rate for writes
system.mem_ctrls0.avgGap                    315462.63                       # Average gap between requests
system.mem_ctrls0.pageHitRate                   54.80                       # Row buffer hit rate, read and write combined
system.mem_ctrls0_0.actEnergy              9165261000                       # Energy for activate commands per rank (pJ)
system.mem_ctrls0_0.preEnergy              4871425185                       # Energy for precharge commands per rank (pJ)
system.mem_ctrls0_0.readEnergy            15355812360                       # Energy for read commands per rank (pJ)
system.mem_ctrls0_0.writeEnergy            3603282480                       # Energy for write commands per rank (pJ)
system.mem_ctrls0_0.refreshEnergy        138595788240.000031                       # Energy for refresh commands per rank (pJ)
system.mem_ctrls0_0.actBackEnergy         89793258240                       # Energy for active background per rank (pJ)
system.mem_ctrls0_0.preBackEnergy          5013079200                       # Energy for precharge background per rank (pJ)
system.mem_ctrls0_0.actPowerDownEnergy   532293757290                       # Energy for active power-down per rank (pJ)
system.mem_ctrls0_0.prePowerDownEnergy   105137250240                       # Energy for precharge power-down per rank (pJ)
system.mem_ctrls0_0.selfRefreshEnergy     38864876850                       # Energy for self refresh per rank (pJ)
system.mem_ctrls0_0.totalEnergy          942730450785                       # Total energy per rank (pJ)
system.mem_ctrls0_0.averagePower           529.695976                       # Core power per rank (mW)
system.mem_ctrls0_0.totalIdleTime        1569699580954                       # Total Idle time Per DRAM Rank
system.mem_ctrls0_0.memoryStateTime::IDLE   5124182550                       # Time in different power states
system.mem_ctrls0_0.memoryStateTime::REF  58718506000                       # Time in different power states
system.mem_ctrls0_0.memoryStateTime::SREF 128600312830                       # Time in different power states
system.mem_ctrls0_0.memoryStateTime::PRE_PDN 273795326791                       # Time in different power states
system.mem_ctrls0_0.memoryStateTime::ACT 146215333354                       # Time in different power states
system.mem_ctrls0_0.memoryStateTime::ACT_PDN 1167303941333                       # Time in different power states
system.mem_ctrls0_1.actEnergy              9040832220                       # Energy for activate commands per rank (pJ)
system.mem_ctrls0_1.preEnergy              4805301105                       # Energy for precharge commands per rank (pJ)
system.mem_ctrls0_1.readEnergy            15176926800                       # Energy for read commands per rank (pJ)
system.mem_ctrls0_1.writeEnergy            3521777400                       # Energy for write commands per rank (pJ)
system.mem_ctrls0_1.refreshEnergy        138167998800.000031                       # Energy for refresh commands per rank (pJ)
system.mem_ctrls0_1.actBackEnergy         89821166580                       # Energy for active background per rank (pJ)
system.mem_ctrls0_1.preBackEnergy          5050079520                       # Energy for precharge background per rank (pJ)
system.mem_ctrls0_1.actPowerDownEnergy   526700766810                       # Energy for active power-down per rank (pJ)
system.mem_ctrls0_1.prePowerDownEnergy   106317721440                       # Energy for precharge power-down per rank (pJ)
system.mem_ctrls0_1.selfRefreshEnergy     41307697470                       # Energy for self refresh per rank (pJ)
system.mem_ctrls0_1.totalEnergy          939946352535                       # Total energy per rank (pJ)
system.mem_ctrls0_1.averagePower           528.131663                       # Core power per rank (mW)
system.mem_ctrls0_1.totalIdleTime        1569549507572                       # Total Idle time Per DRAM Rank
system.mem_ctrls0_1.memoryStateTime::IDLE   5257630063                       # Time in different power states
system.mem_ctrls0_1.memoryStateTime::REF  58540450000                       # Time in different power states
system.mem_ctrls0_1.memoryStateTime::SREF 137635226037                       # Time in different power states
system.mem_ctrls0_1.memoryStateTime::PRE_PDN 276869656628                       # Time in different power states
system.mem_ctrls0_1.memoryStateTime::ACT 146410015223                       # Time in different power states
system.mem_ctrls0_1.memoryStateTime::ACT_PDN 1155044624907                       # Time in different power states
system.mem_ctrls1.pwrStateResidencyTicks::UNDEFINED 75049911403560                       # Cumulative time (in ticks) in various power states
system.mem_ctrls1.bytes_read::cpu.inst            128                       # Number of bytes read from this memory
system.mem_ctrls1.bytes_read::cpu.data            192                       # Number of bytes read from this memory
system.mem_ctrls1.bytes_read::switch_cpus.inst        43840                       # Number of bytes read from this memory
system.mem_ctrls1.bytes_read::switch_cpus.data    232756992                       # Number of bytes read from this memory
system.mem_ctrls1.bytes_read::switch_cpus_1.inst         3200                       # Number of bytes read from this memory
system.mem_ctrls1.bytes_read::switch_cpus_1.data     40927360                       # Number of bytes read from this memory
system.mem_ctrls1.bytes_read::total         273731712                       # Number of bytes read from this memory
system.mem_ctrls1.bytes_inst_read::cpu.inst          128                       # Number of instructions bytes read from this memory
system.mem_ctrls1.bytes_inst_read::switch_cpus.inst        43840                       # Number of instructions bytes read from this memory
system.mem_ctrls1.bytes_inst_read::switch_cpus_1.inst         3200                       # Number of instructions bytes read from this memory
system.mem_ctrls1.bytes_inst_read::total        47168                       # Number of instructions bytes read from this memory
system.mem_ctrls1.bytes_written::writebacks     87355136                       # Number of bytes written to this memory
system.mem_ctrls1.bytes_written::total       87355136                       # Number of bytes written to this memory
system.mem_ctrls1.num_reads::cpu.inst               2                       # Number of read requests responded to by this memory
system.mem_ctrls1.num_reads::cpu.data               3                       # Number of read requests responded to by this memory
system.mem_ctrls1.num_reads::switch_cpus.inst          685                       # Number of read requests responded to by this memory
system.mem_ctrls1.num_reads::switch_cpus.data      3636828                       # Number of read requests responded to by this memory
system.mem_ctrls1.num_reads::switch_cpus_1.inst           50                       # Number of read requests responded to by this memory
system.mem_ctrls1.num_reads::switch_cpus_1.data       639490                       # Number of read requests responded to by this memory
system.mem_ctrls1.num_reads::total            4277058                       # Number of read requests responded to by this memory
system.mem_ctrls1.num_writes::writebacks      1364924                       # Number of write requests responded to by this memory
system.mem_ctrls1.num_writes::total           1364924                       # Number of write requests responded to by this memory
system.mem_ctrls1.bw_read::cpu.inst                72                       # Total read bandwidth from this memory (bytes/s)
system.mem_ctrls1.bw_read::cpu.data               108                       # Total read bandwidth from this memory (bytes/s)
system.mem_ctrls1.bw_read::switch_cpus.inst        24633                       # Total read bandwidth from this memory (bytes/s)
system.mem_ctrls1.bw_read::switch_cpus.data    130780164                       # Total read bandwidth from this memory (bytes/s)
system.mem_ctrls1.bw_read::switch_cpus_1.inst         1798                       # Total read bandwidth from this memory (bytes/s)
system.mem_ctrls1.bw_read::switch_cpus_1.data     22996030                       # Total read bandwidth from this memory (bytes/s)
system.mem_ctrls1.bw_read::total            153802805                       # Total read bandwidth from this memory (bytes/s)
system.mem_ctrls1.bw_inst_read::cpu.inst           72                       # Instruction read bandwidth from this memory (bytes/s)
system.mem_ctrls1.bw_inst_read::switch_cpus.inst        24633                       # Instruction read bandwidth from this memory (bytes/s)
system.mem_ctrls1.bw_inst_read::switch_cpus_1.inst         1798                       # Instruction read bandwidth from this memory (bytes/s)
system.mem_ctrls1.bw_inst_read::total           26502                       # Instruction read bandwidth from this memory (bytes/s)
system.mem_ctrls1.bw_write::writebacks       49082603                       # Write bandwidth from this memory (bytes/s)
system.mem_ctrls1.bw_write::total            49082603                       # Write bandwidth from this memory (bytes/s)
system.mem_ctrls1.bw_total::writebacks       49082603                       # Total bandwidth to/from this memory (bytes/s)
system.mem_ctrls1.bw_total::cpu.inst               72                       # Total bandwidth to/from this memory (bytes/s)
system.mem_ctrls1.bw_total::cpu.data              108                       # Total bandwidth to/from this memory (bytes/s)
system.mem_ctrls1.bw_total::switch_cpus.inst        24633                       # Total bandwidth to/from this memory (bytes/s)
system.mem_ctrls1.bw_total::switch_cpus.data    130780164                       # Total bandwidth to/from this memory (bytes/s)
system.mem_ctrls1.bw_total::switch_cpus_1.inst         1798                       # Total bandwidth to/from this memory (bytes/s)
system.mem_ctrls1.bw_total::switch_cpus_1.data     22996030                       # Total bandwidth to/from this memory (bytes/s)
system.mem_ctrls1.bw_total::total           202885408                       # Total bandwidth to/from this memory (bytes/s)
system.mem_ctrls1.readReqs                    4277058                       # Number of read requests accepted
system.mem_ctrls1.writeReqs                   1364924                       # Number of write requests accepted
system.mem_ctrls1.readBursts                  4277058                       # Number of DRAM read bursts, including those serviced by the write queue
system.mem_ctrls1.writeBursts                 1364924                       # Number of DRAM write bursts, including those merged in the write queue
system.mem_ctrls1.bytesReadDRAM             273700992                       # Total number of bytes read from DRAM
system.mem_ctrls1.bytesReadWrQ                  30720                       # Total number of bytes read from write queue
system.mem_ctrls1.bytesWritten               87353920                       # Total number of bytes written to DRAM
system.mem_ctrls1.bytesReadSys              273731712                       # Total read bytes from the system interface side
system.mem_ctrls1.bytesWrittenSys            87355136                       # Total written bytes from the system interface side
system.mem_ctrls1.servicedByWrQ                   480                       # Number of DRAM read bursts serviced by the write queue
system.mem_ctrls1.mergedWrBursts                    0                       # Number of DRAM write bursts merged with an existing one
system.mem_ctrls1.neitherReadNorWriteReqs            0                       # Number of requests that are neither read nor write
system.mem_ctrls1.perBankRdBursts::0           273753                       # Per bank write bursts
system.mem_ctrls1.perBankRdBursts::1           270091                       # Per bank write bursts
system.mem_ctrls1.perBankRdBursts::2           267720                       # Per bank write bursts
system.mem_ctrls1.perBankRdBursts::3           267434                       # Per bank write bursts
system.mem_ctrls1.perBankRdBursts::4           266586                       # Per bank write bursts
system.mem_ctrls1.perBankRdBursts::5           268224                       # Per bank write bursts
system.mem_ctrls1.perBankRdBursts::6           267449                       # Per bank write bursts
system.mem_ctrls1.perBankRdBursts::7           268749                       # Per bank write bursts
system.mem_ctrls1.perBankRdBursts::8           270370                       # Per bank write bursts
system.mem_ctrls1.perBankRdBursts::9           267425                       # Per bank write bursts
system.mem_ctrls1.perBankRdBursts::10          262814                       # Per bank write bursts
system.mem_ctrls1.perBankRdBursts::11          260337                       # Per bank write bursts
system.mem_ctrls1.perBankRdBursts::12          260651                       # Per bank write bursts
system.mem_ctrls1.perBankRdBursts::13          265182                       # Per bank write bursts
system.mem_ctrls1.perBankRdBursts::14          269561                       # Per bank write bursts
system.mem_ctrls1.perBankRdBursts::15          270232                       # Per bank write bursts
system.mem_ctrls1.perBankWrBursts::0            88462                       # Per bank write bursts
system.mem_ctrls1.perBankWrBursts::1            86951                       # Per bank write bursts
system.mem_ctrls1.perBankWrBursts::2            86589                       # Per bank write bursts
system.mem_ctrls1.perBankWrBursts::3            86864                       # Per bank write bursts
system.mem_ctrls1.perBankWrBursts::4            87075                       # Per bank write bursts
system.mem_ctrls1.perBankWrBursts::5            86808                       # Per bank write bursts
system.mem_ctrls1.perBankWrBursts::6            84166                       # Per bank write bursts
system.mem_ctrls1.perBankWrBursts::7            83341                       # Per bank write bursts
system.mem_ctrls1.perBankWrBursts::8            83933                       # Per bank write bursts
system.mem_ctrls1.perBankWrBursts::9            84210                       # Per bank write bursts
system.mem_ctrls1.perBankWrBursts::10           83724                       # Per bank write bursts
system.mem_ctrls1.perBankWrBursts::11           82688                       # Per bank write bursts
system.mem_ctrls1.perBankWrBursts::12           82802                       # Per bank write bursts
system.mem_ctrls1.perBankWrBursts::13           84224                       # Per bank write bursts
system.mem_ctrls1.perBankWrBursts::14           86357                       # Per bank write bursts
system.mem_ctrls1.perBankWrBursts::15           86711                       # Per bank write bursts
system.mem_ctrls1.numRdRetry                        0                       # Number of times read queue was full causing retry
system.mem_ctrls1.numWrRetry                        0                       # Number of times write queue was full causing retry
system.mem_ctrls1.totGap                 1779757468992                       # Total gap between requests
system.mem_ctrls1.readPktSize::0                    0                       # Read request sizes (log2)
system.mem_ctrls1.readPktSize::1                    0                       # Read request sizes (log2)
system.mem_ctrls1.readPktSize::2                    0                       # Read request sizes (log2)
system.mem_ctrls1.readPktSize::3                    0                       # Read request sizes (log2)
system.mem_ctrls1.readPktSize::4                    0                       # Read request sizes (log2)
system.mem_ctrls1.readPktSize::5                    0                       # Read request sizes (log2)
system.mem_ctrls1.readPktSize::6              4277058                       # Read request sizes (log2)
system.mem_ctrls1.writePktSize::0                   0                       # Write request sizes (log2)
system.mem_ctrls1.writePktSize::1                   0                       # Write request sizes (log2)
system.mem_ctrls1.writePktSize::2                   0                       # Write request sizes (log2)
system.mem_ctrls1.writePktSize::3                   0                       # Write request sizes (log2)
system.mem_ctrls1.writePktSize::4                   0                       # Write request sizes (log2)
system.mem_ctrls1.writePktSize::5                   0                       # Write request sizes (log2)
system.mem_ctrls1.writePktSize::6             1364924                       # Write request sizes (log2)
system.mem_ctrls1.rdQLenPdf::0                4080637                       # What read queue length does an incoming req see
system.mem_ctrls1.rdQLenPdf::1                 156535                       # What read queue length does an incoming req see
system.mem_ctrls1.rdQLenPdf::2                  36536                       # What read queue length does an incoming req see
system.mem_ctrls1.rdQLenPdf::3                   2870                       # What read queue length does an incoming req see
system.mem_ctrls1.rdQLenPdf::4                      0                       # What read queue length does an incoming req see
system.mem_ctrls1.rdQLenPdf::5                      0                       # What read queue length does an incoming req see
system.mem_ctrls1.rdQLenPdf::6                      0                       # What read queue length does an incoming req see
system.mem_ctrls1.rdQLenPdf::7                      0                       # What read queue length does an incoming req see
system.mem_ctrls1.rdQLenPdf::8                      0                       # What read queue length does an incoming req see
system.mem_ctrls1.rdQLenPdf::9                      0                       # What read queue length does an incoming req see
system.mem_ctrls1.rdQLenPdf::10                     0                       # What read queue length does an incoming req see
system.mem_ctrls1.rdQLenPdf::11                     0                       # What read queue length does an incoming req see
system.mem_ctrls1.rdQLenPdf::12                     0                       # What read queue length does an incoming req see
system.mem_ctrls1.rdQLenPdf::13                     0                       # What read queue length does an incoming req see
system.mem_ctrls1.rdQLenPdf::14                     0                       # What read queue length does an incoming req see
system.mem_ctrls1.rdQLenPdf::15                     0                       # What read queue length does an incoming req see
system.mem_ctrls1.rdQLenPdf::16                     0                       # What read queue length does an incoming req see
system.mem_ctrls1.rdQLenPdf::17                     0                       # What read queue length does an incoming req see
system.mem_ctrls1.rdQLenPdf::18                     0                       # What read queue length does an incoming req see
system.mem_ctrls1.rdQLenPdf::19                     0                       # What read queue length does an incoming req see
system.mem_ctrls1.rdQLenPdf::20                     0                       # What read queue length does an incoming req see
system.mem_ctrls1.rdQLenPdf::21                     0                       # What read queue length does an incoming req see
system.mem_ctrls1.rdQLenPdf::22                     0                       # What read queue length does an incoming req see
system.mem_ctrls1.rdQLenPdf::23                     0                       # What read queue length does an incoming req see
system.mem_ctrls1.rdQLenPdf::24                     0                       # What read queue length does an incoming req see
system.mem_ctrls1.rdQLenPdf::25                     0                       # What read queue length does an incoming req see
system.mem_ctrls1.rdQLenPdf::26                     0                       # What read queue length does an incoming req see
system.mem_ctrls1.rdQLenPdf::27                     0                       # What read queue length does an incoming req see
system.mem_ctrls1.rdQLenPdf::28                     0                       # What read queue length does an incoming req see
system.mem_ctrls1.rdQLenPdf::29                     0                       # What read queue length does an incoming req see
system.mem_ctrls1.rdQLenPdf::30                     0                       # What read queue length does an incoming req see
system.mem_ctrls1.rdQLenPdf::31                     0                       # What read queue length does an incoming req see
system.mem_ctrls1.wrQLenPdf::0                      2                       # What write queue length does an incoming req see
system.mem_ctrls1.wrQLenPdf::1                      2                       # What write queue length does an incoming req see
system.mem_ctrls1.wrQLenPdf::2                      2                       # What write queue length does an incoming req see
system.mem_ctrls1.wrQLenPdf::3                      2                       # What write queue length does an incoming req see
system.mem_ctrls1.wrQLenPdf::4                      2                       # What write queue length does an incoming req see
system.mem_ctrls1.wrQLenPdf::5                      2                       # What write queue length does an incoming req see
system.mem_ctrls1.wrQLenPdf::6                      2                       # What write queue length does an incoming req see
system.mem_ctrls1.wrQLenPdf::7                      2                       # What write queue length does an incoming req see
system.mem_ctrls1.wrQLenPdf::8                      2                       # What write queue length does an incoming req see
system.mem_ctrls1.wrQLenPdf::9                      2                       # What write queue length does an incoming req see
system.mem_ctrls1.wrQLenPdf::10                     2                       # What write queue length does an incoming req see
system.mem_ctrls1.wrQLenPdf::11                     2                       # What write queue length does an incoming req see
system.mem_ctrls1.wrQLenPdf::12                     2                       # What write queue length does an incoming req see
system.mem_ctrls1.wrQLenPdf::13                     2                       # What write queue length does an incoming req see
system.mem_ctrls1.wrQLenPdf::14                     2                       # What write queue length does an incoming req see
system.mem_ctrls1.wrQLenPdf::15                 39787                       # What write queue length does an incoming req see
system.mem_ctrls1.wrQLenPdf::16                 41614                       # What write queue length does an incoming req see
system.mem_ctrls1.wrQLenPdf::17                 74897                       # What write queue length does an incoming req see
system.mem_ctrls1.wrQLenPdf::18                 79461                       # What write queue length does an incoming req see
system.mem_ctrls1.wrQLenPdf::19                 80457                       # What write queue length does an incoming req see
system.mem_ctrls1.wrQLenPdf::20                 80612                       # What write queue length does an incoming req see
system.mem_ctrls1.wrQLenPdf::21                 80633                       # What write queue length does an incoming req see
system.mem_ctrls1.wrQLenPdf::22                 80632                       # What write queue length does an incoming req see
system.mem_ctrls1.wrQLenPdf::23                 80648                       # What write queue length does an incoming req see
system.mem_ctrls1.wrQLenPdf::24                 80683                       # What write queue length does an incoming req see
system.mem_ctrls1.wrQLenPdf::25                 80704                       # What write queue length does an incoming req see
system.mem_ctrls1.wrQLenPdf::26                 80738                       # What write queue length does an incoming req see
system.mem_ctrls1.wrQLenPdf::27                 80727                       # What write queue length does an incoming req see
system.mem_ctrls1.wrQLenPdf::28                 81034                       # What write queue length does an incoming req see
system.mem_ctrls1.wrQLenPdf::29                 81240                       # What write queue length does an incoming req see
system.mem_ctrls1.wrQLenPdf::30                 80698                       # What write queue length does an incoming req see
system.mem_ctrls1.wrQLenPdf::31                 80173                       # What write queue length does an incoming req see
system.mem_ctrls1.wrQLenPdf::32                 80056                       # What write queue length does an incoming req see
system.mem_ctrls1.wrQLenPdf::33                    87                       # What write queue length does an incoming req see
system.mem_ctrls1.wrQLenPdf::34                    12                       # What write queue length does an incoming req see
system.mem_ctrls1.wrQLenPdf::35                     1                       # What write queue length does an incoming req see
system.mem_ctrls1.wrQLenPdf::36                     0                       # What write queue length does an incoming req see
system.mem_ctrls1.wrQLenPdf::37                     0                       # What write queue length does an incoming req see
system.mem_ctrls1.wrQLenPdf::38                     0                       # What write queue length does an incoming req see
system.mem_ctrls1.wrQLenPdf::39                     0                       # What write queue length does an incoming req see
system.mem_ctrls1.wrQLenPdf::40                     0                       # What write queue length does an incoming req see
system.mem_ctrls1.wrQLenPdf::41                     0                       # What write queue length does an incoming req see
system.mem_ctrls1.wrQLenPdf::42                     0                       # What write queue length does an incoming req see
system.mem_ctrls1.wrQLenPdf::43                     0                       # What write queue length does an incoming req see
system.mem_ctrls1.wrQLenPdf::44                     0                       # What write queue length does an incoming req see
system.mem_ctrls1.wrQLenPdf::45                     0                       # What write queue length does an incoming req see
system.mem_ctrls1.wrQLenPdf::46                     0                       # What write queue length does an incoming req see
system.mem_ctrls1.wrQLenPdf::47                     0                       # What write queue length does an incoming req see
system.mem_ctrls1.wrQLenPdf::48                     0                       # What write queue length does an incoming req see
system.mem_ctrls1.wrQLenPdf::49                     0                       # What write queue length does an incoming req see
system.mem_ctrls1.wrQLenPdf::50                     0                       # What write queue length does an incoming req see
system.mem_ctrls1.wrQLenPdf::51                     0                       # What write queue length does an incoming req see
system.mem_ctrls1.wrQLenPdf::52                     0                       # What write queue length does an incoming req see
system.mem_ctrls1.wrQLenPdf::53                     0                       # What write queue length does an incoming req see
system.mem_ctrls1.wrQLenPdf::54                     0                       # What write queue length does an incoming req see
system.mem_ctrls1.wrQLenPdf::55                     0                       # What write queue length does an incoming req see
system.mem_ctrls1.wrQLenPdf::56                     0                       # What write queue length does an incoming req see
system.mem_ctrls1.wrQLenPdf::57                     0                       # What write queue length does an incoming req see
system.mem_ctrls1.wrQLenPdf::58                     0                       # What write queue length does an incoming req see
system.mem_ctrls1.wrQLenPdf::59                     0                       # What write queue length does an incoming req see
system.mem_ctrls1.wrQLenPdf::60                     0                       # What write queue length does an incoming req see
system.mem_ctrls1.wrQLenPdf::61                     0                       # What write queue length does an incoming req see
system.mem_ctrls1.wrQLenPdf::62                     0                       # What write queue length does an incoming req see
system.mem_ctrls1.wrQLenPdf::63                     0                       # What write queue length does an incoming req see
system.mem_ctrls1.bytesPerActivate::samples      2550716                       # Bytes accessed per row activation
system.mem_ctrls1.bytesPerActivate::mean   141.550140                       # Bytes accessed per row activation
system.mem_ctrls1.bytesPerActivate::gmean   106.923440                       # Bytes accessed per row activation
system.mem_ctrls1.bytesPerActivate::stdev   142.921922                       # Bytes accessed per row activation
system.mem_ctrls1.bytesPerActivate::0-127      1363928     53.47%     53.47% # Bytes accessed per row activation
system.mem_ctrls1.bytesPerActivate::128-255       837671     32.84%     86.31% # Bytes accessed per row activation
system.mem_ctrls1.bytesPerActivate::256-383       146046      5.73%     92.04% # Bytes accessed per row activation
system.mem_ctrls1.bytesPerActivate::384-511        72572      2.85%     94.88% # Bytes accessed per row activation
system.mem_ctrls1.bytesPerActivate::512-639        68271      2.68%     97.56% # Bytes accessed per row activation
system.mem_ctrls1.bytesPerActivate::640-767        27204      1.07%     98.63% # Bytes accessed per row activation
system.mem_ctrls1.bytesPerActivate::768-895        21576      0.85%     99.47% # Bytes accessed per row activation
system.mem_ctrls1.bytesPerActivate::896-1023         7184      0.28%     99.75% # Bytes accessed per row activation
system.mem_ctrls1.bytesPerActivate::1024-1151         6264      0.25%    100.00% # Bytes accessed per row activation
system.mem_ctrls1.bytesPerActivate::total      2550716                       # Bytes accessed per row activation
system.mem_ctrls1.rdPerTurnAround::samples        79986                       # Reads before turning the bus around for writes
system.mem_ctrls1.rdPerTurnAround::mean     53.466482                       # Reads before turning the bus around for writes
system.mem_ctrls1.rdPerTurnAround::gmean    47.852195                       # Reads before turning the bus around for writes
system.mem_ctrls1.rdPerTurnAround::stdev   114.886581                       # Reads before turning the bus around for writes
system.mem_ctrls1.rdPerTurnAround::0-1023        79985    100.00%    100.00% # Reads before turning the bus around for writes
system.mem_ctrls1.rdPerTurnAround::30720-31743            1      0.00%    100.00% # Reads before turning the bus around for writes
system.mem_ctrls1.rdPerTurnAround::total        79986                       # Reads before turning the bus around for writes
system.mem_ctrls1.wrPerTurnAround::samples        79986                       # Writes before turning the bus around for reads
system.mem_ctrls1.wrPerTurnAround::mean     17.064299                       # Writes before turning the bus around for reads
system.mem_ctrls1.wrPerTurnAround::gmean    17.031416                       # Writes before turning the bus around for reads
system.mem_ctrls1.wrPerTurnAround::stdev     1.061739                       # Writes before turning the bus around for reads
system.mem_ctrls1.wrPerTurnAround::16           38616     48.28%     48.28% # Writes before turning the bus around for reads
system.mem_ctrls1.wrPerTurnAround::17            1339      1.67%     49.95% # Writes before turning the bus around for reads
system.mem_ctrls1.wrPerTurnAround::18           36604     45.76%     95.72% # Writes before turning the bus around for reads
system.mem_ctrls1.wrPerTurnAround::19            3154      3.94%     99.66% # Writes before turning the bus around for reads
system.mem_ctrls1.wrPerTurnAround::20             248      0.31%     99.97% # Writes before turning the bus around for reads
system.mem_ctrls1.wrPerTurnAround::21              23      0.03%    100.00% # Writes before turning the bus around for reads
system.mem_ctrls1.wrPerTurnAround::22               1      0.00%    100.00% # Writes before turning the bus around for reads
system.mem_ctrls1.wrPerTurnAround::23               1      0.00%    100.00% # Writes before turning the bus around for reads
system.mem_ctrls1.wrPerTurnAround::total        79986                       # Writes before turning the bus around for reads
system.mem_ctrls1.totQLat                 94289699143                       # Total ticks spent queuing
system.mem_ctrls1.totMemAccLat           174475536643                       # Total ticks spent from burst creation until serviced by the DRAM
system.mem_ctrls1.totBusLat               21382890000                       # Total ticks spent in databus transfers
system.mem_ctrls1.avgQLat                    22047.93                       # Average queueing delay per DRAM burst
system.mem_ctrls1.avgBusLat                   5000.00                       # Average bus latency per DRAM burst
system.mem_ctrls1.avgMemAccLat               40797.93                       # Average memory access latency per DRAM burst
system.mem_ctrls1.avgRdBW                      153.79                       # Average DRAM read bandwidth in MiByte/s
system.mem_ctrls1.avgWrBW                       49.08                       # Average achieved write bandwidth in MiByte/s
system.mem_ctrls1.avgRdBWSys                   153.80                       # Average system read bandwidth in MiByte/s
system.mem_ctrls1.avgWrBWSys                    49.08                       # Average system write bandwidth in MiByte/s
system.mem_ctrls1.peakBW                     12800.00                       # Theoretical peak bandwidth in MiByte/s
system.mem_ctrls1.busUtil                        1.58                       # Data bus utilization in percentage
system.mem_ctrls1.busUtilRead                    1.20                       # Data bus utilization in percentage for reads
system.mem_ctrls1.busUtilWrite                   0.38                       # Data bus utilization in percentage for writes
system.mem_ctrls1.avgRdQLen                      1.02                       # Average read queue length when enqueuing
system.mem_ctrls1.avgWrQLen                     24.56                       # Average write queue length when enqueuing
system.mem_ctrls1.readRowHits                 2668913                       # Number of row buffer hits during reads
system.mem_ctrls1.writeRowHits                 421843                       # Number of row buffer hits during writes
system.mem_ctrls1.readRowHitRate                62.41                       # Row buffer hit rate for reads
system.mem_ctrls1.writeRowHitRate               30.91                       # Row buffer hit rate for writes
system.mem_ctrls1.avgGap                    315448.98                       # Average gap between requests
system.mem_ctrls1.pageHitRate                   54.79                       # Row buffer hit rate, read and write combined
system.mem_ctrls1_0.actEnergy              9167510100                       # Energy for activate commands per rank (pJ)
system.mem_ctrls1_0.preEnergy              4872624405                       # Energy for precharge commands per rank (pJ)
system.mem_ctrls1_0.readEnergy            15351042840                       # Energy for read commands per rank (pJ)
system.mem_ctrls1_0.writeEnergy            3603136320                       # Energy for write commands per rank (pJ)
system.mem_ctrls1_0.refreshEnergy        138584110080.000031                       # Energy for refresh commands per rank (pJ)
system.mem_ctrls1_0.actBackEnergy         89759475480                       # Energy for active background per rank (pJ)
system.mem_ctrls1_0.preBackEnergy          5032398240                       # Energy for precharge background per rank (pJ)
system.mem_ctrls1_0.actPowerDownEnergy   532484124180                       # Energy for active power-down per rank (pJ)
system.mem_ctrls1_0.prePowerDownEnergy   105013860960                       # Energy for precharge power-down per rank (pJ)
system.mem_ctrls1_0.selfRefreshEnergy     38831177745                       # Energy for self refresh per rank (pJ)
system.mem_ctrls1_0.totalEnergy          942738585630                       # Total energy per rank (pJ)
system.mem_ctrls1_0.averagePower           529.700546                       # Core power per rank (mW)
system.mem_ctrls1_0.totalIdleTime        1569723394420                       # Total Idle time Per DRAM Rank
system.mem_ctrls1_0.memoryStateTime::IDLE   5168224413                       # Time in different power states
system.mem_ctrls1_0.memoryStateTime::REF  58713254000                       # Time in different power states
system.mem_ctrls1_0.memoryStateTime::SREF 128522363728                       # Time in different power states
system.mem_ctrls1_0.memoryStateTime::PRE_PDN 273471993147                       # Time in different power states
system.mem_ctrls1_0.memoryStateTime::ACT 146152649644                       # Time in different power states
system.mem_ctrls1_0.memoryStateTime::ACT_PDN 1167729117926                       # Time in different power states
system.mem_ctrls1_1.actEnergy              9044680680                       # Energy for activate commands per rank (pJ)
system.mem_ctrls1_1.preEnergy              4807342815                       # Energy for precharge commands per rank (pJ)
system.mem_ctrls1_1.readEnergy            15183724080                       # Energy for read commands per rank (pJ)
system.mem_ctrls1_1.writeEnergy            3521667780                       # Energy for write commands per rank (pJ)
system.mem_ctrls1_1.refreshEnergy        138157549920.000031                       # Energy for refresh commands per rank (pJ)
system.mem_ctrls1_1.actBackEnergy         89799940920                       # Energy for active background per rank (pJ)
system.mem_ctrls1_1.preBackEnergy          5048702400                       # Energy for precharge background per rank (pJ)
system.mem_ctrls1_1.actPowerDownEnergy   527361156270                       # Energy for active power-down per rank (pJ)
system.mem_ctrls1_1.prePowerDownEnergy   105847033920                       # Energy for precharge power-down per rank (pJ)
system.mem_ctrls1_1.selfRefreshEnergy     41242999620                       # Energy for self refresh per rank (pJ)
system.mem_ctrls1_1.totalEnergy          940051269645                       # Total energy per rank (pJ)
system.mem_ctrls1_1.averagePower           528.190612                       # Core power per rank (mW)
system.mem_ctrls1_1.totalIdleTime        1569594955272                       # Total Idle time Per DRAM Rank
system.mem_ctrls1_1.memoryStateTime::IDLE   5256005545                       # Time in different power states
system.mem_ctrls1_1.memoryStateTime::REF  58535676000                       # Time in different power states
system.mem_ctrls1_1.memoryStateTime::SREF 137462037702                       # Time in different power states
system.mem_ctrls1_1.memoryStateTime::PRE_PDN 275639509601                       # Time in different power states
system.mem_ctrls1_1.memoryStateTime::ACT 146370784428                       # Time in different power states
system.mem_ctrls1_1.memoryStateTime::ACT_PDN 1156493589582                       # Time in different power states
system.pwrStateResidencyTicks::UNDEFINED 75049911403560                       # Cumulative time (in ticks) in various power states
system.cpu.branchPred.lookups                       2                       # Number of BP lookups
system.cpu.branchPred.condPredicted                 2                       # Number of conditional branches predicted
system.cpu.branchPred.condIncorrect                 1                       # Number of conditional branches incorrect
system.cpu.branchPred.BTBLookups                    0                       # Number of BTB lookups
system.cpu.branchPred.BTBHits                       0                       # Number of BTB hits
system.cpu.branchPred.BTBCorrect                    0                       # Number of correct BTB predictions (this stat may not work properly.
system.cpu.branchPred.BTBHitPct                   nan                       # BTB Hit Percentage
system.cpu.branchPred.usedRAS                       0                       # Number of times the RAS was used to get a target.
system.cpu.branchPred.RASInCorrect                  0                       # Number of incorrect RAS predictions.
system.cpu.branchPred.indirectLookups               0                       # Number of indirect predictor lookups.
system.cpu.branchPred.indirectHits                  0                       # Number of indirect target hits.
system.cpu.branchPred.indirectMisses                0                       # Number of indirect misses.
system.cpu.branchPredindirectMispredicted            0                       # Number of mispredicted indirect branches.
system.cpu_voltage_domain.voltage                   1                       # Voltage in Volts
system.cpu_clk_domain.clock                       333                       # Clock period in ticks
system.cpu.dtb.fetch_hits                           0                       # ITB hits
system.cpu.dtb.fetch_misses                         0                       # ITB misses
system.cpu.dtb.fetch_acv                            0                       # ITB acv
system.cpu.dtb.fetch_accesses                       0                       # ITB accesses
system.cpu.dtb.read_hits                           23                       # DTB read hits
system.cpu.dtb.read_misses                          0                       # DTB read misses
system.cpu.dtb.read_acv                             0                       # DTB read access violations
system.cpu.dtb.read_accesses                       23                       # DTB read accesses
system.cpu.dtb.write_hits                           3                       # DTB write hits
system.cpu.dtb.write_misses                         0                       # DTB write misses
system.cpu.dtb.write_acv                            0                       # DTB write access violations
system.cpu.dtb.write_accesses                       3                       # DTB write accesses
system.cpu.dtb.data_hits                           26                       # DTB hits
system.cpu.dtb.data_misses                          0                       # DTB misses
system.cpu.dtb.data_acv                             0                       # DTB access violations
system.cpu.dtb.data_accesses                       26                       # DTB accesses
system.cpu.itb.fetch_hits                           7                       # ITB hits
system.cpu.itb.fetch_misses                         0                       # ITB misses
system.cpu.itb.fetch_acv                            0                       # ITB acv
system.cpu.itb.fetch_accesses                       7                       # ITB accesses
system.cpu.itb.read_hits                            0                       # DTB read hits
system.cpu.itb.read_misses                          0                       # DTB read misses
system.cpu.itb.read_acv                             0                       # DTB read access violations
system.cpu.itb.read_accesses                        0                       # DTB read accesses
system.cpu.itb.write_hits                           0                       # DTB write hits
system.cpu.itb.write_misses                         0                       # DTB write misses
system.cpu.itb.write_acv                            0                       # DTB write access violations
system.cpu.itb.write_accesses                       0                       # DTB write accesses
system.cpu.itb.data_hits                            0                       # DTB hits
system.cpu.itb.data_misses                          0                       # DTB misses
system.cpu.itb.data_acv                             0                       # DTB access violations
system.cpu.itb.data_accesses                        0                       # DTB accesses
system.cpu.workload.num_syscalls                    0                       # Number of system calls
system.cpu.pwrStateResidencyTicks::ON    1779757602858                       # Cumulative time (in ticks) in various power states
system.cpu.numCycles                              871                       # number of cpu cycles simulated
system.cpu.numWorkItemsStarted                      0                       # number of work items this cpu started
system.cpu.numWorkItemsCompleted                    0                       # number of work items this cpu completed
system.cpu.fetch.icacheStallCycles                 62                       # Number of cycles fetch is stalled on an Icache miss
system.cpu.fetch.Insts                             51                       # Number of instructions fetch has processed
system.cpu.fetch.Branches                           2                       # Number of branches that fetch encountered
system.cpu.fetch.Cycles                             7                       # Number of cycles fetch has run and was not squashing or blocked
system.cpu.fetch.SquashCycles                       5                       # Number of cycles fetch has spent squashing
system.cpu.fetch.PendingDrainCycles                10                       # Number of cycles fetch has spent waiting on pipes to drain
system.cpu.fetch.CacheLines                         7                       # Number of cache lines fetched
system.cpu.fetch.IcacheSquashes                     3                       # Number of outstanding Icache misses that were squashed
system.cpu.fetch.rateDist::samples                 81                       # Number of instructions fetched each cycle (Total)
system.cpu.fetch.rateDist::mean              0.629630                       # Number of instructions fetched each cycle (Total)
system.cpu.fetch.rateDist::stdev             2.100265                       # Number of instructions fetched each cycle (Total)
system.cpu.fetch.rateDist::underflows               0      0.00%      0.00% # Number of instructions fetched each cycle (Total)
system.cpu.fetch.rateDist::0                       74     91.36%     91.36% # Number of instructions fetched each cycle (Total)
system.cpu.fetch.rateDist::1                        0      0.00%     91.36% # Number of instructions fetched each cycle (Total)
system.cpu.fetch.rateDist::2                        0      0.00%     91.36% # Number of instructions fetched each cycle (Total)
system.cpu.fetch.rateDist::3                        0      0.00%     91.36% # Number of instructions fetched each cycle (Total)
system.cpu.fetch.rateDist::4                        1      1.23%     92.59% # Number of instructions fetched each cycle (Total)
[...]
system.switch_cpus_1.iq.int_inst_queue_writes    142179581                       # Number of integer instruction queue writes
system.switch_cpus_1.iq.int_inst_queue_wakeup_accesses    140180786                       # Number of integer instruction queue wakeup accesses
system.switch_cpus_1.iq.fp_inst_queue_reads    152816537                       # Number of floating instruction queue reads
system.switch_cpus_1.iq.fp_inst_queue_writes     62658139                       # Number of floating instruction queue writes
system.switch_cpus_1.iq.fp_inst_queue_wakeup_accesses     61348269                       # Number of floating instruction queue wakeup accesses
system.switch_cpus_1.iq.int_alu_accesses    154343829                       # Number of integer alu accesses
system.switch_cpus_1.iq.fp_alu_accesses      82313516                       # Number of floating point alu accesses
system.switch_cpus_1.iew.lsq.thread0.forwLoads      1460937                       # Number of loads that had data forwarded from stores
system.switch_cpus_1.iew.lsq.thread0.invAddrLoads            0                       # Number of loads ignored due to an invalid address
system.switch_cpus_1.iew.lsq.thread0.squashedLoads       803104                       # Number of loads squashed
system.switch_cpus_1.iew.lsq.thread0.ignoredResponses            0                       # Number of memory responses ignored because the instruction is squashed
system.switch_cpus_1.iew.lsq.thread0.memOrderViolation          355                       # Number of memory ordering violations
system.switch_cpus_1.iew.lsq.thread0.squashedStores       152157                       # Number of stores squashed
system.switch_cpus_1.iew.lsq.thread0.invAddrSwpfs            0                       # Number of software prefetches ignored due to an invalid address
system.switch_cpus_1.iew.lsq.thread0.blockedLoads            0                       # Number of blocked loads due to partial load-store forwarding
system.switch_cpus_1.iew.lsq.thread0.rescheduledLoads            0                       # Number of loads that were rescheduled
system.switch_cpus_1.iew.lsq.thread0.cacheBlocked     13096272                       # Number of times an access to memory failed due to the cache being blocked
system.switch_cpus_1.iew.iewIdleCycles              0                       # Number of cycles IEW is idle
system.switch_cpus_1.iew.iewSquashCycles        63503                       # Number of cycles IEW is squashing
system.switch_cpus_1.iew.iewBlockCycles      16121668                       # Number of cycles IEW is blocking
system.switch_cpus_1.iew.iewUnblockCycles     31312094                       # Number of cycles IEW is unblocking
system.switch_cpus_1.iew.iewDispatchedInsts    202486621                       # Number of instructions dispatched to IQ
system.switch_cpus_1.iew.iewDispSquashedInsts        61501                       # Number of squashed instructions skipped by dispatch
system.switch_cpus_1.iew.iewDispLoadInsts     68397503                       # Number of dispatched load instructions
system.switch_cpus_1.iew.iewDispStoreInsts     10464638                       # Number of dispatched store instructions
system.switch_cpus_1.iew.iewDispNonSpecInsts           86                       # Number of dispatched non-speculative instructions
system.switch_cpus_1.iew.iewIQFullEvents       249673                       # Number of times the IQ has become full, causing a stall
system.switch_cpus_1.iew.iewLSQFullEvents     30798121                       # Number of times the LSQ has become full, causing a stall
system.switch_cpus_1.iew.memOrderViolationEvents          355                       # Number of memory order violations
system.switch_cpus_1.iew.predictedTakenIncorrect        47599                       # Number of branches that were predicted taken incorrectly
system.switch_cpus_1.iew.predictedNotTakenIncorrect          436                       # Number of branches that were predicted not taken incorrectly
system.switch_cpus_1.iew.branchMispredicts        48035                       # Number of branch mispredicts detected at execute
system.switch_cpus_1.iew.iewExecutedInsts    214477792                       # Number of executed instructions
system.switch_cpus_1.iew.iewExecLoadInsts     80974266                       # Number of load instructions executed
system.switch_cpus_1.iew.iewExecSquashedInsts       115801                       # Number of squashed instructions skipped in execute
system.switch_cpus_1.iew.exec_swp                   0                       # number of swp insts executed
system.switch_cpus_1.iew.exec_nop               67895                       # number of nop insts executed
system.switch_cpus_1.iew.exec_refs           91329022                       # number of memory reference insts executed
system.switch_cpus_1.iew.exec_branches        5549952                       # Number of branches executed
system.switch_cpus_1.iew.exec_stores         10354756                       # Number of stores executed
system.switch_cpus_1.iew.exec_rate           0.900582                       # Inst execution rate
system.switch_cpus_1.iew.wb_sent            201663480                       # cumulative count of insts sent to commit
system.switch_cpus_1.iew.wb_count           201529055                       # cumulative count of insts written-back
system.switch_cpus_1.iew.wb_producers       139680686                       # num instructions producing a value
system.switch_cpus_1.iew.wb_consumers       153323893                       # num instructions consuming a value
system.switch_cpus_1.iew.wb_rate             0.846211                       # insts written-back per cycle
system.switch_cpus_1.iew.wb_fanout           0.911017                       # average fanout of values written-back
system.switch_cpus_1.commit.commitSquashedInsts      2362882                       # The number of squashed insts skipped by commit
system.switch_cpus_1.commit.commitNonSpecStalls          144                       # The number of times commit has been forced to stall to communicate backwards
system.switch_cpus_1.commit.branchMispredicts        47875                       # The number of times a branch was mispredicted
system.switch_cpus_1.commit.committed_per_cycle::samples    237823252                       # Number of insts commited each cycle
system.switch_cpus_1.commit.committed_per_cycle::mean     0.841207                       # Number of insts commited each cycle
system.switch_cpus_1.commit.committed_per_cycle::stdev     2.295655                       # Number of insts commited each cycle
system.switch_cpus_1.commit.committed_per_cycle::underflows            0      0.00%      0.00% # Number of insts commited each cycle
system.switch_cpus_1.commit.committed_per_cycle::0    201985470     84.93%     84.93% # Number of insts commited each cycle
system.switch_cpus_1.commit.committed_per_cycle::1      7454547      3.13%     88.07% # Number of insts commited each cycle
system.switch_cpus_1.commit.committed_per_cycle::2      1489902      0.63%     88.69% # Number of insts commited each cycle
system.switch_cpus_1.commit.committed_per_cycle::3      1602830      0.67%     89.37% # Number of insts commited each cycle
system.switch_cpus_1.commit.committed_per_cycle::4      2197160      0.92%     90.29% # Number of insts commited each cycle
system.switch_cpus_1.commit.committed_per_cycle::5      1460533      0.61%     90.90% # Number of insts commited each cycle
system.switch_cpus_1.commit.committed_per_cycle::6      1344544      0.57%     91.47% # Number of insts commited each cycle
system.switch_cpus_1.commit.committed_per_cycle::7      1648867      0.69%     92.16% # Number of insts commited each cycle
system.switch_cpus_1.commit.committed_per_cycle::8     18639399      7.84%    100.00% # Number of insts commited each cycle
system.switch_cpus_1.commit.committed_per_cycle::overflows            0      0.00%    100.00% # Number of insts commited each cycle
system.switch_cpus_1.commit.committed_per_cycle::min_value            0                       # Number of insts commited each cycle
system.switch_cpus_1.commit.committed_per_cycle::max_value            8                       # Number of insts commited each cycle
system.switch_cpus_1.commit.committed_per_cycle::total    237823252                       # Number of insts commited each cycle
system.switch_cpus_1.commit.committedInsts    200058671                       # Number of instructions committed
system.switch_cpus_1.commit.committedOps    200058671                       # Number of ops (including micro ops) committed
system.switch_cpus_1.commit.swp_count               0                       # Number of s/w prefetches committed
system.switch_cpus_1.commit.refs             77906848                       # Number of memory references committed
system.switch_cpus_1.commit.loads            67594371                       # Number of loads committed
system.switch_cpus_1.commit.membars                72                       # Number of memory barriers committed
system.switch_cpus_1.commit.branches          5447366                       # Number of branches committed
system.switch_cpus_1.commit.fp_insts         61032861                       # Number of committed floating point instructions.
system.switch_cpus_1.commit.int_insts       169602469                       # Number of committed integer instructions.
system.switch_cpus_1.commit.function_calls           74                       # Number of function calls committed.
system.switch_cpus_1.commit.op_class_0::No_OpClass        58667      0.03%      0.03% # Class of committed instruction
system.switch_cpus_1.commit.op_class_0::IntAlu     69024585     34.50%     34.53% # Class of committed instruction
system.switch_cpus_1.commit.op_class_0::IntMult     22692429     11.34%     45.87% # Class of committed instruction
system.switch_cpus_1.commit.op_class_0::IntDiv            0      0.00%     45.87% # Class of committed instruction
system.switch_cpus_1.commit.op_class_0::FloatAdd     15421069      7.71%     53.58% # Class of committed instruction
system.switch_cpus_1.commit.op_class_0::FloatCmp            0      0.00%     53.58% # Class of committed instruction
system.switch_cpus_1.commit.op_class_0::FloatCvt         3010      0.00%     53.58% # Class of committed instruction
system.switch_cpus_1.commit.op_class_0::FloatMult     13619855      6.81%     60.39% # Class of committed instruction
system.switch_cpus_1.commit.op_class_0::FloatMultAcc            0      0.00%     60.39% # Class of committed instruction
system.switch_cpus_1.commit.op_class_0::FloatDiv      1151536      0.58%     60.97% # Class of committed instruction
system.switch_cpus_1.commit.op_class_0::FloatMisc            0      0.00%     60.97% # Class of committed instruction
system.switch_cpus_1.commit.op_class_0::FloatSqrt       180600      0.09%     61.06% # Class of committed instruction
system.switch_cpus_1.commit.op_class_0::SimdAdd            0      0.00%     61.06% # Class of committed instruction
system.switch_cpus_1.commit.op_class_0::SimdAddAcc            0      0.00%     61.06% # Class of committed instruction
system.switch_cpus_1.commit.op_class_0::SimdAlu            0      0.00%     61.06% # Class of committed instruction
system.switch_cpus_1.commit.op_class_0::SimdCmp            0      0.00%     61.06% # Class of committed instruction
system.switch_cpus_1.commit.op_class_0::SimdCvt            0      0.00%     61.06% # Class of committed instruction
system.switch_cpus_1.commit.op_class_0::SimdMisc            0      0.00%     61.06% # Class of committed instruction
system.switch_cpus_1.commit.op_class_0::SimdMult            0      0.00%     61.06% # Class of committed instruction
system.switch_cpus_1.commit.op_class_0::SimdMultAcc            0      0.00%     61.06% # Class of committed instruction
system.switch_cpus_1.commit.op_class_0::SimdShift            0      0.00%     61.06% # Class of committed instruction
system.switch_cpus_1.commit.op_class_0::SimdShiftAcc            0      0.00%     61.06% # Class of committed instruction
system.switch_cpus_1.commit.op_class_0::SimdSqrt            0      0.00%     61.06% # Class of committed instruction
system.switch_cpus_1.commit.op_class_0::SimdFloatAdd            0      0.00%     61.06% # Class of committed instruction
system.switch_cpus_1.commit.op_class_0::SimdFloatAlu            0      0.00%     61.06% # Class of committed instruction
system.switch_cpus_1.commit.op_class_0::SimdFloatCmp            0      0.00%     61.06% # Class of committed instruction
system.switch_cpus_1.commit.op_class_0::SimdFloatCvt            0      0.00%     61.06% # Class of committed instruction
system.switch_cpus_1.commit.op_class_0::SimdFloatDiv            0      0.00%     61.06% # Class of committed instruction
system.switch_cpus_1.commit.op_class_0::SimdFloatMisc            0      0.00%     61.06% # Class of committed instruction
system.switch_cpus_1.commit.op_class_0::SimdFloatMult            0      0.00%     61.06% # Class of committed instruction
system.switch_cpus_1.commit.op_class_0::SimdFloatMultAcc            0      0.00%     61.06% # Class of committed instruction
system.switch_cpus_1.commit.op_class_0::SimdFloatSqrt            0      0.00%     61.06% # Class of committed instruction
system.switch_cpus_1.commit.op_class_0::MemRead     44149715     22.07%     83.13% # Class of committed instruction
system.switch_cpus_1.commit.op_class_0::MemWrite      3100414      1.55%     84.68% # Class of committed instruction
system.switch_cpus_1.commit.op_class_0::FloatMemRead     23444728     11.72%     96.40% # Class of committed instruction
system.switch_cpus_1.commit.op_class_0::FloatMemWrite      7212063      3.60%    100.00% # Class of committed instruction
system.switch_cpus_1.commit.op_class_0::IprAccess            0      0.00%    100.00% # Class of committed instruction
system.switch_cpus_1.commit.op_class_0::InstPrefetch            0      0.00%    100.00% # Class of committed instruction
system.switch_cpus_1.commit.op_class_0::total    200058671                       # Class of committed instruction
system.switch_cpus_1.commit.bw_lim_events     18639399                       # number cycles where commit BW limit reached
system.switch_cpus_1.rob.rob_reads          421406233                       # The number of ROB reads
system.switch_cpus_1.rob.rob_writes         405162749                       # The number of ROB writes
system.switch_cpus_1.timesIdled                   113                       # Number of times that the entire CPU went into an idle state and unscheduled itself
system.switch_cpus_1.idleCycles                 11740                       # Total number of cycles that the CPU has spent unscheduled due to idling
system.switch_cpus_1.committedInsts         200000004                       # Number of Instructions Simulated
system.switch_cpus_1.committedOps           200000004                       # Number of Ops (including micro ops) Simulated
system.switch_cpus_1.cpi                     1.190773                       # CPI: Cycles Per Instruction
system.switch_cpus_1.cpi_total               1.190773                       # CPI: Total CPI of All Threads
system.switch_cpus_1.ipc                     0.839791                       # IPC: Instructions Per Cycle
system.switch_cpus_1.ipc_total               0.839791                       # IPC: Total IPC of All Threads
system.switch_cpus_1.int_regfile_reads      261014179                       # number of integer regfile reads
system.switch_cpus_1.int_regfile_writes     131552339                       # number of integer regfile writes
system.switch_cpus_1.fp_regfile_reads        68055249                       # number of floating regfile reads
system.switch_cpus_1.fp_regfile_writes       54126230                       # number of floating regfile writes
system.switch_cpus_1.misc_regfile_reads           162                       # number of misc regfile reads
system.switch_cpus_1.misc_regfile_writes          144                       # number of misc regfile writes
system.tol3bus.snoop_filter.tot_requests     21501560                       # Total number of requests made to the snoop filter.
system.tol3bus.snoop_filter.hit_single_requests     10748473                       # Number of requests hitting in the snoop filter with a single holder of the requested data.
system.tol3bus.snoop_filter.hit_multi_requests            0                       # Number of requests hitting in the snoop filter with multiple (>1) holders of the requested data.
system.tol3bus.snoop_filter.tot_snoops          31451                       # Total number of snoops made to the snoop filter.
system.tol3bus.snoop_filter.hit_single_snoops        31451                       # Number of snoops hitting in the snoop filter with a single holder of the requested data.
system.tol3bus.snoop_filter.hit_multi_snoops            0                       # Number of snoops hitting in the snoop filter with multiple (>1) holders of the requested data.
system.tol3bus.pwrStateResidencyTicks::UNDEFINED 75049911403560                       # Cumulative time (in ticks) in various power states
system.tol3bus.trans_dist::ReadResp           8306217                       # Transaction distribution
system.tol3bus.trans_dist::WritebackDirty      6017076                       # Transaction distribution
system.tol3bus.trans_dist::CleanEvict        13221376                       # Transaction distribution
system.tol3bus.trans_dist::ReadExReq          2446870                       # Transaction distribution
system.tol3bus.trans_dist::ReadExResp         2446868                       # Transaction distribution
system.tol3bus.trans_dist::ReadSharedReq      8306217                       # Transaction distribution
system.tol3bus.pkt_count_system.cpu.l2.mem_side::system.l3.cpu_side     32254645                       # Packet count per connected master and slave (bytes)
system.tol3bus.pkt_size_system.cpu.l2.mem_side::system.l3.cpu_side    898576384                       # Cumulative packet size per connected master and slave (bytes)
system.tol3bus.snoops                         8489979                       # Total snoops (count)
system.tol3bus.snoopTraffic                 174713920                       # Total snoop traffic (bytes)
system.tol3bus.snoop_fanout::samples         19243066                       # Request fanout histogram
system.tol3bus.snoop_fanout::mean            0.001634                       # Request fanout histogram
system.tol3bus.snoop_fanout::stdev           0.040395                       # Request fanout histogram
system.tol3bus.snoop_fanout::underflows             0      0.00%      0.00% # Request fanout histogram
system.tol3bus.snoop_fanout::0               19211615     99.84%     99.84% # Request fanout histogram
system.tol3bus.snoop_fanout::1                  31451      0.16%    100.00% # Request fanout histogram
system.tol3bus.snoop_fanout::overflows              0      0.00%    100.00% # Request fanout histogram
system.tol3bus.snoop_fanout::min_value              0                       # Request fanout histogram
system.tol3bus.snoop_fanout::max_value              1                       # Request fanout histogram
system.tol3bus.snoop_fanout::total           19243066                       # Request fanout histogram
system.tol3bus.reqLayer0.occupancy         8254647423                       # Layer occupancy (ticks)
system.tol3bus.reqLayer0.utilization              0.5                       # Layer utilization (%)
system.tol3bus.respLayer0.occupancy        7161554610                       # Layer occupancy (ticks)
system.tol3bus.respLayer0.utilization             0.4                       # Layer utilization (%)

---------- End Simulation Statistics   ----------
