
---------- Begin Simulation Statistics ----------
sim_seconds                                  4.874747                       # Number of seconds simulated
sim_ticks                                4874747089284                       # Number of ticks simulated
final_tick                               148351735406358                       # Number of ticks from beginning of simulation (restored from checkpoints and never reset)
sim_freq                                 1000000000000                       # Frequency of simulated ticks
host_inst_rate                                 286708                       # Simulator instruction rate (inst/s)
host_op_rate                                   286708                       # Simulator op (including micro ops) rate (op/s)
host_tick_rate                              635286302                       # Simulator tick rate (ticks/s)
host_mem_usage                                2542176                       # Number of bytes of host memory used
host_seconds                                  7673.31                       # Real time elapsed on the host
sim_insts                                  2200000006                       # Number of instructions simulated
sim_ops                                    2200000006                       # Number of ops (including micro ops) simulated
system.voltage_domain.voltage                       1                       # Voltage in Volts
system.clk_domain.clock                          1000                       # Clock period in ticks
system.mem_ctrls0.pwrStateResidencyTicks::UNDEFINED 148351735406358                       # Cumulative time (in ticks) in various power states
system.mem_ctrls0.bytes_read::cpu.inst            128                       # Number of bytes read from this memory
system.mem_ctrls0.bytes_read::cpu.data            256                       # Number of bytes read from this memory
system.mem_ctrls0.bytes_read::switch_cpus.inst        50816                       # Number of bytes read from this memory
system.mem_ctrls0.bytes_read::switch_cpus.data    832820800                       # Number of bytes read from this memory
system.mem_ctrls0.bytes_read::switch_cpus_1.data    119799872                       # Number of bytes read from this memory
system.mem_ctrls0.bytes_read::total         952671872                       # Number of bytes read from this memory
system.mem_ctrls0.bytes_inst_read::cpu.inst          128                       # Number of instructions bytes read from this memory
system.mem_ctrls0.bytes_inst_read::switch_cpus.inst        50816                       # Number of instructions bytes read from this memory
system.mem_ctrls0.bytes_inst_read::total        50944                       # Number of instructions bytes read from this memory
system.mem_ctrls0.bytes_written::writebacks    435765632                       # Number of bytes written to this memory
system.mem_ctrls0.bytes_written::total      435765632                       # Number of bytes written to this memory
system.mem_ctrls0.num_reads::cpu.inst               2                       # Number of read requests responded to by this memory
system.mem_ctrls0.num_reads::cpu.data               4                       # Number of read requests responded to by this memory
system.mem_ctrls0.num_reads::switch_cpus.inst          794                       # Number of read requests responded to by this memory
system.mem_ctrls0.num_reads::switch_cpus.data     13012825                       # Number of read requests responded to by this memory
system.mem_ctrls0.num_reads::switch_cpus_1.data      1871873                       # Number of read requests responded to by this memory
system.mem_ctrls0.num_reads::total           14885498                       # Number of read requests responded to by this memory
system.mem_ctrls0.num_writes::writebacks      6808838                       # Number of write requests responded to by this memory
system.mem_ctrls0.num_writes::total           6808838                       # Number of write requests responded to by this memory
system.mem_ctrls0.bw_read::cpu.inst                26                       # Total read bandwidth from this memory (bytes/s)
system.mem_ctrls0.bw_read::cpu.data                53                       # Total read bandwidth from this memory (bytes/s)
system.mem_ctrls0.bw_read::switch_cpus.inst        10424                       # Total read bandwidth from this memory (bytes/s)
system.mem_ctrls0.bw_read::switch_cpus.data    170843899                       # Total read bandwidth from this memory (bytes/s)
system.mem_ctrls0.bw_read::switch_cpus_1.data     24575608                       # Total read bandwidth from this memory (bytes/s)
system.mem_ctrls0.bw_read::total            195430010                       # Total read bandwidth from this memory (bytes/s)
system.mem_ctrls0.bw_inst_read::cpu.inst           26                       # Instruction read bandwidth from this memory (bytes/s)
system.mem_ctrls0.bw_inst_read::switch_cpus.inst        10424                       # Instruction read bandwidth from this memory (bytes/s)
system.mem_ctrls0.bw_inst_read::total           10451                       # Instruction read bandwidth from this memory (bytes/s)
system.mem_ctrls0.bw_write::writebacks       89392460                       # Write bandwidth from this memory (bytes/s)
system.mem_ctrls0.bw_write::total            89392460                       # Write bandwidth from this memory (bytes/s)
system.mem_ctrls0.bw_total::writebacks       89392460                       # Total bandwidth to/from this memory (bytes/s)
system.mem_ctrls0.bw_total::cpu.inst               26                       # Total bandwidth to/from this memory (bytes/s)
system.mem_ctrls0.bw_total::cpu.data               53                       # Total bandwidth to/from this memory (bytes/s)
system.mem_ctrls0.bw_total::switch_cpus.inst        10424                       # Total bandwidth to/from this memory (bytes/s)
system.mem_ctrls0.bw_total::switch_cpus.data    170843899                       # Total bandwidth to/from this memory (bytes/s)
system.mem_ctrls0.bw_total::switch_cpus_1.data     24575608                       # Total bandwidth to/from this memory (bytes/s)
system.mem_ctrls0.bw_total::total           284822469                       # Total bandwidth to/from this memory (bytes/s)
system.mem_ctrls0.readReqs                   14885498                       # Number of read requests accepted
system.mem_ctrls0.writeReqs                   6808838                       # Number of write requests accepted
system.mem_ctrls0.readBursts                 14885498                       # Number of DRAM read bursts, including those serviced by the write queue
system.mem_ctrls0.writeBursts                 6808838                       # Number of DRAM write bursts, including those merged in the write queue
system.mem_ctrls0.bytesReadDRAM             952647296                       # Total number of bytes read from DRAM
system.mem_ctrls0.bytesReadWrQ                  24576                       # Total number of bytes read from write queue
system.mem_ctrls0.bytesWritten              435762944                       # Total number of bytes written to DRAM
system.mem_ctrls0.bytesReadSys              952671872                       # Total read bytes from the system interface side
system.mem_ctrls0.bytesWrittenSys           435765632                       # Total written bytes from the system interface side
system.mem_ctrls0.servicedByWrQ                   384                       # Number of DRAM read bursts serviced by the write queue
system.mem_ctrls0.mergedWrBursts                   14                       # Number of DRAM write bursts merged with an existing one
system.mem_ctrls0.neitherReadNorWriteReqs            0                       # Number of requests that are neither read nor write
system.mem_ctrls0.perBankRdBursts::0           929992                       # Per bank write bursts
system.mem_ctrls0.perBankRdBursts::1           931726                       # Per bank write bursts
system.mem_ctrls0.perBankRdBursts::2           930301                       # Per bank write bursts
system.mem_ctrls0.perBankRdBursts::3           929133                       # Per bank write bursts
system.mem_ctrls0.perBankRdBursts::4           929379                       # Per bank write bursts
system.mem_ctrls0.perBankRdBursts::5           929740                       # Per bank write bursts
system.mem_ctrls0.perBankRdBursts::6           929612                       # Per bank write bursts
system.mem_ctrls0.perBankRdBursts::7           929966                       # Per bank write bursts
system.mem_ctrls0.perBankRdBursts::8           929965                       # Per bank write bursts
system.mem_ctrls0.perBankRdBursts::9           928752                       # Per bank write bursts
system.mem_ctrls0.perBankRdBursts::10          929953                       # Per bank write bursts
system.mem_ctrls0.perBankRdBursts::11          934045                       # Per bank write bursts
system.mem_ctrls0.perBankRdBursts::12          933102                       # Per bank write bursts
system.mem_ctrls0.perBankRdBursts::13          931939                       # Per bank write bursts
system.mem_ctrls0.perBankRdBursts::14          929191                       # Per bank write bursts
system.mem_ctrls0.perBankRdBursts::15          928318                       # Per bank write bursts
system.mem_ctrls0.perBankWrBursts::0           425833                       # Per bank write bursts
system.mem_ctrls0.perBankWrBursts::1           426507                       # Per bank write bursts
system.mem_ctrls0.perBankWrBursts::2           426733                       # Per bank write bursts
system.mem_ctrls0.perBankWrBursts::3           425411                       # Per bank write bursts
system.mem_ctrls0.perBankWrBursts::4           424772                       # Per bank write bursts
system.mem_ctrls0.perBankWrBursts::5           424645                       # Per bank write bursts
system.mem_ctrls0.perBankWrBursts::6           425943                       # Per bank write bursts
system.mem_ctrls0.perBankWrBursts::7           425715                       # Per bank write bursts
system.mem_ctrls0.perBankWrBursts::8           425129                       # Per bank write bursts
system.mem_ctrls0.perBankWrBursts::9           424114                       # Per bank write bursts
system.mem_ctrls0.perBankWrBursts::10          424504                       # Per bank write bursts
system.mem_ctrls0.perBankWrBursts::11          426630                       # Per bank write bursts
system.mem_ctrls0.perBankWrBursts::12          426663                       # Per bank write bursts
system.mem_ctrls0.perBankWrBursts::13          425834                       # Per bank write bursts
system.mem_ctrls0.perBankWrBursts::14          425648                       # Per bank write bursts
system.mem_ctrls0.perBankWrBursts::15          424715                       # Per bank write bursts
system.mem_ctrls0.numRdRetry                        0                       # Number of times read queue was full causing retry
system.mem_ctrls0.numWrRetry                        0                       # Number of times write queue was full causing retry
system.mem_ctrls0.totGap                 4874747060646                       # Total gap between requests
system.mem_ctrls0.readPktSize::0                    0                       # Read request sizes (log2)
system.mem_ctrls0.readPktSize::1                    0                       # Read request sizes (log2)
system.mem_ctrls0.readPktSize::2                    0                       # Read request sizes (log2)
system.mem_ctrls0.readPktSize::3                    0                       # Read request sizes (log2)
system.mem_ctrls0.readPktSize::4                    0                       # Read request sizes (log2)
system.mem_ctrls0.readPktSize::5                    0                       # Read request sizes (log2)
system.mem_ctrls0.readPktSize::6             14885498                       # Read request sizes (log2)
system.mem_ctrls0.writePktSize::0                   0                       # Write request sizes (log2)
system.mem_ctrls0.writePktSize::1                   0                       # Write request sizes (log2)
system.mem_ctrls0.writePktSize::2                   0                       # Write request sizes (log2)
system.mem_ctrls0.writePktSize::3                   0                       # Write request sizes (log2)
system.mem_ctrls0.writePktSize::4                   0                       # Write request sizes (log2)
system.mem_ctrls0.writePktSize::5                   0                       # Write request sizes (log2)
system.mem_ctrls0.writePktSize::6             6808838                       # Write request sizes (log2)
system.mem_ctrls0.rdQLenPdf::0               14036411                       # What read queue length does an incoming req see
system.mem_ctrls0.rdQLenPdf::1                 569292                       # What read queue length does an incoming req see
system.mem_ctrls0.rdQLenPdf::2                 231573                       # What read queue length does an incoming req see
system.mem_ctrls0.rdQLenPdf::3                  47838                       # What read queue length does an incoming req see
system.mem_ctrls0.rdQLenPdf::4                      0                       # What read queue length does an incoming req see
system.mem_ctrls0.rdQLenPdf::5                      0                       # What read queue length does an incoming req see
system.mem_ctrls0.rdQLenPdf::6                      0                       # What read queue length does an incoming req see
system.mem_ctrls0.rdQLenPdf::7                      0                       # What read queue length does an incoming req see
system.mem_ctrls0.rdQLenPdf::8                      0                       # What read queue length does an incoming req see
system.mem_ctrls0.rdQLenPdf::9                      0                       # What read queue length does an incoming req see
system.mem_ctrls0.rdQLenPdf::10                     0                       # What read queue length does an incoming req see
system.mem_ctrls0.rdQLenPdf::11                     0                       # What read queue length does an incoming req see
system.mem_ctrls0.rdQLenPdf::12                     0                       # What read queue length does an incoming req see
system.mem_ctrls0.rdQLenPdf::13                     0                       # What read queue length does an incoming req see
system.mem_ctrls0.rdQLenPdf::14                     0                       # What read queue length does an incoming req see
system.mem_ctrls0.rdQLenPdf::15                     0                       # What read queue length does an incoming req see
system.mem_ctrls0.rdQLenPdf::16                     0                       # What read queue length does an incoming req see
system.mem_ctrls0.rdQLenPdf::17                     0                       # What read queue length does an incoming req see
system.mem_ctrls0.rdQLenPdf::18                     0                       # What read queue length does an incoming req see
system.mem_ctrls0.rdQLenPdf::19                     0                       # What read queue length does an incoming req see
system.mem_ctrls0.rdQLenPdf::20                     0                       # What read queue length does an incoming req see
system.mem_ctrls0.rdQLenPdf::21                     0                       # What read queue length does an incoming req see
system.mem_ctrls0.rdQLenPdf::22                     0                       # What read queue length does an incoming req see
system.mem_ctrls0.rdQLenPdf::23                     0                       # What read queue length does an incoming req see
system.mem_ctrls0.rdQLenPdf::24                     0                       # What read queue length does an incoming req see
system.mem_ctrls0.rdQLenPdf::25                     0                       # What read queue length does an incoming req see
system.mem_ctrls0.rdQLenPdf::26                     0                       # What read queue length does an incoming req see
system.mem_ctrls0.rdQLenPdf::27                     0                       # What read queue length does an incoming req see
system.mem_ctrls0.rdQLenPdf::28                     0                       # What read queue length does an incoming req see
system.mem_ctrls0.rdQLenPdf::29                     0                       # What read queue length does an incoming req see
system.mem_ctrls0.rdQLenPdf::30                     0                       # What read queue length does an incoming req see
system.mem_ctrls0.rdQLenPdf::31                     0                       # What read queue length does an incoming req see
system.mem_ctrls0.wrQLenPdf::0                      2                       # What write queue length does an incoming req see
system.mem_ctrls0.wrQLenPdf::1                      2                       # What write queue length does an incoming req see
system.mem_ctrls0.wrQLenPdf::2                      2                       # What write queue length does an incoming req see
system.mem_ctrls0.wrQLenPdf::3                      2                       # What write queue length does an incoming req see
system.mem_ctrls0.wrQLenPdf::4                      2                       # What write queue length does an incoming req see
system.mem_ctrls0.wrQLenPdf::5                      2                       # What write queue length does an incoming req see
system.mem_ctrls0.wrQLenPdf::6                      2                       # What write queue length does an incoming req see
system.mem_ctrls0.wrQLenPdf::7                      2                       # What write queue length does an incoming req see
system.mem_ctrls0.wrQLenPdf::8                      2                       # What write queue length does an incoming req see
system.mem_ctrls0.wrQLenPdf::9                      2                       # What write queue length does an incoming req see
system.mem_ctrls0.wrQLenPdf::10                     2                       # What write queue length does an incoming req see
system.mem_ctrls0.wrQLenPdf::11                     2                       # What write queue length does an incoming req see
system.mem_ctrls0.wrQLenPdf::12                     2                       # What write queue length does an incoming req see
system.mem_ctrls0.wrQLenPdf::13                     2                       # What write queue length does an incoming req see
system.mem_ctrls0.wrQLenPdf::14                     2                       # What write queue length does an incoming req see
system.mem_ctrls0.wrQLenPdf::15                209352                       # What write queue length does an incoming req see
system.mem_ctrls0.wrQLenPdf::16                218293                       # What write queue length does an incoming req see
system.mem_ctrls0.wrQLenPdf::17                385279                       # What write queue length does an incoming req see
system.mem_ctrls0.wrQLenPdf::18                398352                       # What write queue length does an incoming req see
system.mem_ctrls0.wrQLenPdf::19                400313                       # What write queue length does an incoming req see
system.mem_ctrls0.wrQLenPdf::20                400135                       # What write queue length does an incoming req see
system.mem_ctrls0.wrQLenPdf::21                399818                       # What write queue length does an incoming req see
system.mem_ctrls0.wrQLenPdf::22                399775                       # What write queue length does an incoming req see
system.mem_ctrls0.wrQLenPdf::23                399723                       # What write queue length does an incoming req see
system.mem_ctrls0.wrQLenPdf::24                399566                       # What write queue length does an incoming req see
system.mem_ctrls0.wrQLenPdf::25                399516                       # What write queue length does an incoming req see
system.mem_ctrls0.wrQLenPdf::26                399625                       # What write queue length does an incoming req see
system.mem_ctrls0.wrQLenPdf::27                399555                       # What write queue length does an incoming req see
system.mem_ctrls0.wrQLenPdf::28                399972                       # What write queue length does an incoming req see
system.mem_ctrls0.wrQLenPdf::29                400459                       # What write queue length does an incoming req see
system.mem_ctrls0.wrQLenPdf::30                401595                       # What write queue length does an incoming req see
system.mem_ctrls0.wrQLenPdf::31                398705                       # What write queue length does an incoming req see
system.mem_ctrls0.wrQLenPdf::32                398292                       # What write queue length does an incoming req see
system.mem_ctrls0.wrQLenPdf::33                   382                       # What write queue length does an incoming req see
system.mem_ctrls0.wrQLenPdf::34                    63                       # What write queue length does an incoming req see
system.mem_ctrls0.wrQLenPdf::35                    18                       # What write queue length does an incoming req see
system.mem_ctrls0.wrQLenPdf::36                     4                       # What write queue length does an incoming req see
system.mem_ctrls0.wrQLenPdf::37                     2                       # What write queue length does an incoming req see
system.mem_ctrls0.wrQLenPdf::38                     0                       # What write queue length does an incoming req see
system.mem_ctrls0.wrQLenPdf::39                     0                       # What write queue length does an incoming req see
system.mem_ctrls0.wrQLenPdf::40                     0                       # What write queue length does an incoming req see
system.mem_ctrls0.wrQLenPdf::41                     0                       # What write queue length does an incoming req see
system.mem_ctrls0.wrQLenPdf::42                     0                       # What write queue length does an incoming req see
system.mem_ctrls0.wrQLenPdf::43                     0                       # What write queue length does an incoming req see
system.mem_ctrls0.wrQLenPdf::44                     0                       # What write queue length does an incoming req see
system.mem_ctrls0.wrQLenPdf::45                     0                       # What write queue length does an incoming req see
system.mem_ctrls0.wrQLenPdf::46                     0                       # What write queue length does an incoming req see
system.mem_ctrls0.wrQLenPdf::47                     0                       # What write queue length does an incoming req see
system.mem_ctrls0.wrQLenPdf::48                     0                       # What write queue length does an incoming req see
system.mem_ctrls0.wrQLenPdf::49                     0                       # What write queue length does an incoming req see
system.mem_ctrls0.wrQLenPdf::50                     0                       # What write queue length does an incoming req see
system.mem_ctrls0.wrQLenPdf::51                     0                       # What write queue length does an incoming req see
system.mem_ctrls0.wrQLenPdf::52                     0                       # What write queue length does an incoming req see
system.mem_ctrls0.wrQLenPdf::53                     0                       # What write queue length does an incoming req see
system.mem_ctrls0.wrQLenPdf::54                     0                       # What write queue length does an incoming req see
system.mem_ctrls0.wrQLenPdf::55                     0                       # What write queue length does an incoming req see
system.mem_ctrls0.wrQLenPdf::56                     0                       # What write queue length does an incoming req see
system.mem_ctrls0.wrQLenPdf::57                     0                       # What write queue length does an incoming req see
system.mem_ctrls0.wrQLenPdf::58                     0                       # What write queue length does an incoming req see
system.mem_ctrls0.wrQLenPdf::59                     0                       # What write queue length does an incoming req see
system.mem_ctrls0.wrQLenPdf::60                     0                       # What write queue length does an incoming req see
system.mem_ctrls0.wrQLenPdf::61                     0                       # What write queue length does an incoming req see
system.mem_ctrls0.wrQLenPdf::62                     0                       # What write queue length does an incoming req see
system.mem_ctrls0.wrQLenPdf::63                     0                       # What write queue length does an incoming req see
system.mem_ctrls0.bytesPerActivate::samples     14737785                       # Bytes accessed per row activation
system.mem_ctrls0.bytesPerActivate::mean    94.207411                       # Bytes accessed per row activation
system.mem_ctrls0.bytesPerActivate::gmean    82.707457                       # Bytes accessed per row activation
system.mem_ctrls0.bytesPerActivate::stdev    64.614246                       # Bytes accessed per row activation
system.mem_ctrls0.bytesPerActivate::0-127     10641242     72.20%     72.20% # Bytes accessed per row activation
system.mem_ctrls0.bytesPerActivate::128-255      3338492     22.65%     94.86% # Bytes accessed per row activation
system.mem_ctrls0.bytesPerActivate::256-383       622439      4.22%     99.08% # Bytes accessed per row activation
system.mem_ctrls0.bytesPerActivate::384-511        92761      0.63%     99.71% # Bytes accessed per row activation
system.mem_ctrls0.bytesPerActivate::512-639        24420      0.17%     99.87% # Bytes accessed per row activation
system.mem_ctrls0.bytesPerActivate::640-767         9245      0.06%     99.94% # Bytes accessed per row activation
system.mem_ctrls0.bytesPerActivate::768-895         4549      0.03%     99.97% # Bytes accessed per row activation
system.mem_ctrls0.bytesPerActivate::896-1023         2125      0.01%     99.98% # Bytes accessed per row activation
system.mem_ctrls0.bytesPerActivate::1024-1151         2512      0.02%    100.00% # Bytes accessed per row activation
system.mem_ctrls0.bytesPerActivate::total     14737785                       # Bytes accessed per row activation
system.mem_ctrls0.rdPerTurnAround::samples       397890                       # Reads before turning the bus around for writes
system.mem_ctrls0.rdPerTurnAround::mean     37.410073                       # Reads before turning the bus around for writes
system.mem_ctrls0.rdPerTurnAround::stdev   269.184680                       # Reads before turning the bus around for writes
system.mem_ctrls0.rdPerTurnAround::0-4095       397843     99.99%     99.99% # Reads before turning the bus around for writes
system.mem_ctrls0.rdPerTurnAround::4096-8191           23      0.01%     99.99% # Reads before turning the bus around for writes
system.mem_ctrls0.rdPerTurnAround::8192-12287            7      0.00%    100.00% # Reads before turning the bus around for writes
system.mem_ctrls0.rdPerTurnAround::12288-16383            6      0.00%    100.00% # Reads before turning the bus around for writes
system.mem_ctrls0.rdPerTurnAround::20480-24575            1      0.00%    100.00% # Reads before turning the bus around for writes
system.mem_ctrls0.rdPerTurnAround::24576-28671            3      0.00%    100.00% # Reads before turning the bus around for writes
system.mem_ctrls0.rdPerTurnAround::28672-32767            1      0.00%    100.00% # Reads before turning the bus around for writes
system.mem_ctrls0.rdPerTurnAround::32768-36863            1      0.00%    100.00% # Reads before turning the bus around for writes
system.mem_ctrls0.rdPerTurnAround::36864-40959            2      0.00%    100.00% # Reads before turning the bus around for writes
system.mem_ctrls0.rdPerTurnAround::45056-49151            1      0.00%    100.00% # Reads before turning the bus around for writes
system.mem_ctrls0.rdPerTurnAround::61440-65535            1      0.00%    100.00% # Reads before turning the bus around for writes
system.mem_ctrls0.rdPerTurnAround::102400-106495            1      0.00%    100.00% # Reads before turning the bus around for writes
system.mem_ctrls0.rdPerTurnAround::total       397890                       # Reads before turning the bus around for writes
system.mem_ctrls0.wrPerTurnAround::samples       397890                       # Writes before turning the bus around for reads
system.mem_ctrls0.wrPerTurnAround::mean     17.112257                       # Writes before turning the bus around for reads
system.mem_ctrls0.wrPerTurnAround::gmean    17.079794                       # Writes before turning the bus around for reads
system.mem_ctrls0.wrPerTurnAround::stdev     1.054370                       # Writes before turning the bus around for reads
system.mem_ctrls0.wrPerTurnAround::16          182503     45.87%     45.87% # Writes before turning the bus around for reads
system.mem_ctrls0.wrPerTurnAround::17            4857      1.22%     47.09% # Writes before turning the bus around for reads
system.mem_ctrls0.wrPerTurnAround::18          195411     49.11%     96.20% # Writes before turning the bus around for reads
system.mem_ctrls0.wrPerTurnAround::19           13973      3.51%     99.71% # Writes before turning the bus around for reads
system.mem_ctrls0.wrPerTurnAround::20             924      0.23%     99.94% # Writes before turning the bus around for reads
system.mem_ctrls0.wrPerTurnAround::21             149      0.04%     99.98% # Writes before turning the bus around for reads
system.mem_ctrls0.wrPerTurnAround::22              30      0.01%     99.99% # Writes before turning the bus around for reads
system.mem_ctrls0.wrPerTurnAround::23              25      0.01%    100.00% # Writes before turning the bus around for reads
system.mem_ctrls0.wrPerTurnAround::24               8      0.00%    100.00% # Writes before turning the bus around for reads
system.mem_ctrls0.wrPerTurnAround::25               7      0.00%    100.00% # Writes before turning the bus around for reads
system.mem_ctrls0.wrPerTurnAround::26               1      0.00%    100.00% # Writes before turning the bus around for reads
system.mem_ctrls0.wrPerTurnAround::27               1      0.00%    100.00% # Writes before turning the bus around for reads
system.mem_ctrls0.wrPerTurnAround::30               1      0.00%    100.00% # Writes before turning the bus around for reads
system.mem_ctrls0.wrPerTurnAround::total       397890                       # Writes before turning the bus around for reads
system.mem_ctrls0.totQLat                394523767863                       # Total ticks spent queuing
system.mem_ctrls0.totMemAccLat           673619655363                       # Total ticks spent from burst creation until serviced by the DRAM
system.mem_ctrls0.totBusLat               74425570000                       # Total ticks spent in databus transfers
system.mem_ctrls0.avgQLat                    26504.58                       # Average queueing delay per DRAM burst
system.mem_ctrls0.avgBusLat                   5000.00                       # Average bus latency per DRAM burst
system.mem_ctrls0.avgMemAccLat               45254.58                       # Average memory access latency per DRAM burst
system.mem_ctrls0.avgRdBW                      195.42                       # Average DRAM read bandwidth in MiByte/s
system.mem_ctrls0.avgWrBW                       89.39                       # Average achieved write bandwidth in MiByte/s
system.mem_ctrls0.avgRdBWSys                   195.43                       # Average system read bandwidth in MiByte/s
system.mem_ctrls0.avgWrBWSys                    89.39                       # Average system write bandwidth in MiByte/s
system.mem_ctrls0.peakBW                     12800.00                       # Theoretical peak bandwidth in MiByte/s
system.mem_ctrls0.busUtil                        2.23                       # Data bus utilization in percentage
system.mem_ctrls0.busUtilRead                    1.53                       # Data bus utilization in percentage for reads
system.mem_ctrls0.busUtilWrite                   0.70                       # Data bus utilization in percentage for writes
system.mem_ctrls0.avgRdQLen                      1.02                       # Average read queue length when enqueuing
system.mem_ctrls0.avgWrQLen                     24.81                       # Average write queue length when enqueuing
system.mem_ctrls0.readRowHits                 5347593                       # Number of row buffer hits during reads
system.mem_ctrls0.writeRowHits                1608523                       # Number of row buffer hits during writes
system.mem_ctrls0.readRowHitRate                35.93                       # Row buffer hit rate for reads
system.mem_ctrls0.writeRowHitRate               23.62                       # Row buffer hit rate for writes
system.mem_ctrls0.avgGap                    224701.37                       # Average gap between requests
system.mem_ctrls0.pageHitRate                   32.06                       # Row buffer hit rate, read and write combined
system.mem_ctrls0_0.actEnergy             52576760880                       # Energy for activate commands per rank (pJ)
system.mem_ctrls0_0.preEnergy             27945192165                       # Energy for precharge commands per rank (pJ)
system.mem_ctrls0_0.readEnergy            53120521860                       # Energy for read commands per rank (pJ)
system.mem_ctrls0_0.writeEnergy           17777017980                       # Energy for write commands per rank (pJ)
system.mem_ctrls0_0.refreshEnergy        382259982000.000061                       # Energy for refresh commands per rank (pJ)
system.mem_ctrls0_0.actBackEnergy        324254862600                       # Energy for active background per rank (pJ)
system.mem_ctrls0_0.preBackEnergy          9796920960                       # Energy for precharge background per rank (pJ)
system.mem_ctrls0_0.actPowerDownEnergy   1656165954990                       # Energy for active power-down per rank (pJ)
system.mem_ctrls0_0.prePowerDownEnergy   156193968960                       # Energy for precharge power-down per rank (pJ)
system.mem_ctrls0_0.selfRefreshEnergy     28993313610                       # Energy for self refresh per rank (pJ)
system.mem_ctrls0_0.totalEnergy          2709117532635                       # Total energy per rank (pJ)
system.mem_ctrls0_0.averagePower           555.745245                       # Core power per rank (mW)
system.mem_ctrls0_0.totalIdleTime        4138072635471                       # Total Idle time Per DRAM Rank
system.mem_ctrls0_0.memoryStateTime::IDLE   6031673009                       # Time in different power states
system.mem_ctrls0_0.memoryStateTime::REF 161759624000                       # Time in different power states
system.mem_ctrls0_0.memoryStateTime::SREF  99377513648                       # Time in different power states
system.mem_ctrls0_0.memoryStateTime::PRE_PDN 406753940723                       # Time in different power states
system.mem_ctrls0_0.memoryStateTime::ACT 568882891449                       # Time in different power states
system.mem_ctrls0_0.memoryStateTime::ACT_PDN 3631941446455                       # Time in different power states
system.mem_ctrls0_1.actEnergy             52651088280                       # Energy for activate commands per rank (pJ)
system.mem_ctrls0_1.preEnergy             27984701910                       # Energy for precharge commands per rank (pJ)
system.mem_ctrls0_1.readEnergy            53159192100                       # Energy for read commands per rank (pJ)
system.mem_ctrls0_1.writeEnergy           17764897140                       # Energy for write commands per rank (pJ)
system.mem_ctrls0_1.refreshEnergy        381974174400.000061                       # Energy for refresh commands per rank (pJ)
system.mem_ctrls0_1.actBackEnergy        324276711270                       # Energy for active background per rank (pJ)
system.mem_ctrls0_1.preBackEnergy          9719756160                       # Energy for precharge background per rank (pJ)
system.mem_ctrls0_1.actPowerDownEnergy   1660125537510                       # Energy for active power-down per rank (pJ)
system.mem_ctrls0_1.prePowerDownEnergy   154044728640                       # Energy for precharge power-down per rank (pJ)
system.mem_ctrls0_1.selfRefreshEnergy     27789575115                       # Energy for self refresh per rank (pJ)
system.mem_ctrls0_1.totalEnergy          2709524508885                       # Total energy per rank (pJ)
system.mem_ctrls0_1.averagePower           555.828734                       # Core power per rank (mW)
system.mem_ctrls0_1.totalIdleTime        4138262292067                       # Total Idle time Per DRAM Rank
system.mem_ctrls0_1.memoryStateTime::IDLE   5815963833                       # Time in different power states
system.mem_ctrls0_1.memoryStateTime::REF 161633402000                       # Time in different power states
system.mem_ctrls0_1.memoryStateTime::SREF  96441918195                       # Time in different power states
system.mem_ctrls0_1.memoryStateTime::PRE_PDN 401161038605                       # Time in different power states
system.mem_ctrls0_1.memoryStateTime::ACT 569035381276                       # Time in different power states
system.mem_ctrls0_1.memoryStateTime::ACT_PDN 3640659385375                       # Time in different power states
system.mem_ctrls1.pwrStateResidencyTicks::UNDEFINED 148351735406358                       # Cumulative time (in ticks) in various power states
system.mem_ctrls1.bytes_read::cpu.inst             64                       # Number of bytes read from this memory
system.mem_ctrls1.bytes_read::cpu.data             64                       # Number of bytes read from this memory
system.mem_ctrls1.bytes_read::switch_cpus.inst        49984                       # Number of bytes read from this memory
system.mem_ctrls1.bytes_read::switch_cpus.data    832717184                       # Number of bytes read from this memory
system.mem_ctrls1.bytes_read::switch_cpus_1.inst           64                       # Number of bytes read from this memory
system.mem_ctrls1.bytes_read::switch_cpus_1.data    119757376                       # Number of bytes read from this memory
system.mem_ctrls1.bytes_read::total         952524736                       # Number of bytes read from this memory
system.mem_ctrls1.bytes_inst_read::cpu.inst           64                       # Number of instructions bytes read from this memory
system.mem_ctrls1.bytes_inst_read::switch_cpus.inst        49984                       # Number of instructions bytes read from this memory
system.mem_ctrls1.bytes_inst_read::switch_cpus_1.inst           64                       # Number of instructions bytes read from this memory
system.mem_ctrls1.bytes_inst_read::total        50112                       # Number of instructions bytes read from this memory
system.mem_ctrls1.bytes_written::writebacks    435765632                       # Number of bytes written to this memory
system.mem_ctrls1.bytes_written::total      435765632                       # Number of bytes written to this memory
system.mem_ctrls1.num_reads::cpu.inst               1                       # Number of read requests responded to by this memory
system.mem_ctrls1.num_reads::cpu.data               1                       # Number of read requests responded to by this memory
system.mem_ctrls1.num_reads::switch_cpus.inst          781                       # Number of read requests responded to by this memory
system.mem_ctrls1.num_reads::switch_cpus.data     13011206                       # Number of read requests responded to by this memory
system.mem_ctrls1.num_reads::switch_cpus_1.inst            1                       # Number of read requests responded to by this memory
system.mem_ctrls1.num_reads::switch_cpus_1.data      1871209                       # Number of read requests responded to by this memory
system.mem_ctrls1.num_reads::total           14883199                       # Number of read requests responded to by this memory
system.mem_ctrls1.num_writes::writebacks      6808838                       # Number of write requests responded to by this memory
system.mem_ctrls1.num_writes::total           6808838                       # Number of write requests responded to by this memory
system.mem_ctrls1.bw_read::cpu.inst                13                       # Total read bandwidth from this memory (bytes/s)
system.mem_ctrls1.bw_read::cpu.data                13                       # Total read bandwidth from this memory (bytes/s)
system.mem_ctrls1.bw_read::switch_cpus.inst        10254                       # Total read bandwidth from this memory (bytes/s)
system.mem_ctrls1.bw_read::switch_cpus.data    170822643                       # Total read bandwidth from this memory (bytes/s)
system.mem_ctrls1.bw_read::switch_cpus_1.inst           13                       # Total read bandwidth from this memory (bytes/s)
system.mem_ctrls1.bw_read::switch_cpus_1.data     24566890                       # Total read bandwidth from this memory (bytes/s)
system.mem_ctrls1.bw_read::total            195399827                       # Total read bandwidth from this memory (bytes/s)
system.mem_ctrls1.bw_inst_read::cpu.inst           13                       # Instruction read bandwidth from this memory (bytes/s)
system.mem_ctrls1.bw_inst_read::switch_cpus.inst        10254                       # Instruction read bandwidth from this memory (bytes/s)
system.mem_ctrls1.bw_inst_read::switch_cpus_1.inst           13                       # Instruction read bandwidth from this memory (bytes/s)
system.mem_ctrls1.bw_inst_read::total           10280                       # Instruction read bandwidth from this memory (bytes/s)
system.mem_ctrls1.bw_write::writebacks       89392460                       # Write bandwidth from this memory (bytes/s)
system.mem_ctrls1.bw_write::total            89392460                       # Write bandwidth from this memory (bytes/s)
system.mem_ctrls1.bw_total::writebacks       89392460                       # Total bandwidth to/from this memory (bytes/s)
system.mem_ctrls1.bw_total::cpu.inst               13                       # Total bandwidth to/from this memory (bytes/s)
system.mem_ctrls1.bw_total::cpu.data               13                       # Total bandwidth to/from this memory (bytes/s)
system.mem_ctrls1.bw_total::switch_cpus.inst        10254                       # Total bandwidth to/from this memory (bytes/s)
system.mem_ctrls1.bw_total::switch_cpus.data    170822643                       # Total bandwidth to/from this memory (bytes/s)
system.mem_ctrls1.bw_total::switch_cpus_1.inst           13                       # Total bandwidth to/from this memory (bytes/s)
system.mem_ctrls1.bw_total::switch_cpus_1.data     24566890                       # Total bandwidth to/from this memory (bytes/s)
system.mem_ctrls1.bw_total::total           284792286                       # Total bandwidth to/from this memory (bytes/s)
system.mem_ctrls1.readReqs                   14883199                       # Number of read requests accepted
system.mem_ctrls1.writeReqs                   6808838                       # Number of write requests accepted
system.mem_ctrls1.readBursts                 14883199                       # Number of DRAM read bursts, including those serviced by the write queue
system.mem_ctrls1.writeBursts                 6808838                       # Number of DRAM write bursts, including those merged in the write queue
system.mem_ctrls1.bytesReadDRAM             952498368                       # Total number of bytes read from DRAM
system.mem_ctrls1.bytesReadWrQ                  26368                       # Total number of bytes read from write queue
system.mem_ctrls1.bytesWritten              435763648                       # Total number of bytes written to DRAM
system.mem_ctrls1.bytesReadSys              952524736                       # Total read bytes from the system interface side
system.mem_ctrls1.bytesWrittenSys           435765632                       # Total written bytes from the system interface side
system.mem_ctrls1.servicedByWrQ                   412                       # Number of DRAM read bursts serviced by the write queue
system.mem_ctrls1.mergedWrBursts                   12                       # Number of DRAM write bursts merged with an existing one
system.mem_ctrls1.neitherReadNorWriteReqs            0                       # Number of requests that are neither read nor write
system.mem_ctrls1.perBankRdBursts::0           929646                       # Per bank write bursts
system.mem_ctrls1.perBankRdBursts::1           931379                       # Per bank write bursts
system.mem_ctrls1.perBankRdBursts::2           929585                       # Per bank write bursts
system.mem_ctrls1.perBankRdBursts::3           929584                       # Per bank write bursts
system.mem_ctrls1.perBankRdBursts::4           928935                       # Per bank write bursts
system.mem_ctrls1.perBankRdBursts::5           929631                       # Per bank write bursts
system.mem_ctrls1.perBankRdBursts::6           929739                       # Per bank write bursts
system.mem_ctrls1.perBankRdBursts::7           929595                       # Per bank write bursts
system.mem_ctrls1.perBankRdBursts::8           929726                       # Per bank write bursts
system.mem_ctrls1.perBankRdBursts::9           928725                       # Per bank write bursts
system.mem_ctrls1.perBankRdBursts::10          930262                       # Per bank write bursts
system.mem_ctrls1.perBankRdBursts::11          933889                       # Per bank write bursts
system.mem_ctrls1.perBankRdBursts::12          932865                       # Per bank write bursts
system.mem_ctrls1.perBankRdBursts::13          931900                       # Per bank write bursts
system.mem_ctrls1.perBankRdBursts::14          929075                       # Per bank write bursts
system.mem_ctrls1.perBankRdBursts::15          928251                       # Per bank write bursts
system.mem_ctrls1.perBankWrBursts::0           425698                       # Per bank write bursts
system.mem_ctrls1.perBankWrBursts::1           426637                       # Per bank write bursts
system.mem_ctrls1.perBankWrBursts::2           426517                       # Per bank write bursts
system.mem_ctrls1.perBankWrBursts::3           425564                       # Per bank write bursts
system.mem_ctrls1.perBankWrBursts::4           424726                       # Per bank write bursts
system.mem_ctrls1.perBankWrBursts::5           424651                       # Per bank write bursts
system.mem_ctrls1.perBankWrBursts::6           425932                       # Per bank write bursts
system.mem_ctrls1.perBankWrBursts::7           425602                       # Per bank write bursts
system.mem_ctrls1.perBankWrBursts::8           425314                       # Per bank write bursts
system.mem_ctrls1.perBankWrBursts::9           423868                       # Per bank write bursts
system.mem_ctrls1.perBankWrBursts::10          424670                       # Per bank write bursts
system.mem_ctrls1.perBankWrBursts::11          426653                       # Per bank write bursts
system.mem_ctrls1.perBankWrBursts::12          426716                       # Per bank write bursts
system.mem_ctrls1.perBankWrBursts::13          425737                       # Per bank write bursts
system.mem_ctrls1.perBankWrBursts::14          425641                       # Per bank write bursts
system.mem_ctrls1.perBankWrBursts::15          424881                       # Per bank write bursts
system.mem_ctrls1.numRdRetry                        0                       # Number of times read queue was full causing retry
system.mem_ctrls1.numWrRetry                        0                       # Number of times write queue was full causing retry
system.mem_ctrls1.totGap                 4874746684689                       # Total gap between requests
system.mem_ctrls1.readPktSize::0                    0                       # Read request sizes (log2)
system.mem_ctrls1.readPktSize::1                    0                       # Read request sizes (log2)
system.mem_ctrls1.readPktSize::2                    0                       # Read request sizes (log2)
system.mem_ctrls1.readPktSize::3                    0                       # Read request sizes (log2)
system.mem_ctrls1.readPktSize::4                    0                       # Read request sizes (log2)
system.mem_ctrls1.readPktSize::5                    0                       # Read request sizes (log2)
system.mem_ctrls1.readPktSize::6             14883199                       # Read request sizes (log2)
system.mem_ctrls1.writePktSize::0                   0                       # Write request sizes (log2)
system.mem_ctrls1.writePktSize::1                   0                       # Write request sizes (log2)
system.mem_ctrls1.writePktSize::2                   0                       # Write request sizes (log2)
system.mem_ctrls1.writePktSize::3                   0                       # Write request sizes (log2)
system.mem_ctrls1.writePktSize::4                   0                       # Write request sizes (log2)
system.mem_ctrls1.writePktSize::5                   0                       # Write request sizes (log2)
system.mem_ctrls1.writePktSize::6             6808838                       # Write request sizes (log2)
system.mem_ctrls1.rdQLenPdf::0               14035669                       # What read queue length does an incoming req see
system.mem_ctrls1.rdQLenPdf::1                 568223                       # What read queue length does an incoming req see
system.mem_ctrls1.rdQLenPdf::2                 230994                       # What read queue length does an incoming req see
system.mem_ctrls1.rdQLenPdf::3                  47901                       # What read queue length does an incoming req see
system.mem_ctrls1.rdQLenPdf::4                      0                       # What read queue length does an incoming req see
system.mem_ctrls1.rdQLenPdf::5                      0                       # What read queue length does an incoming req see
system.mem_ctrls1.rdQLenPdf::6                      0                       # What read queue length does an incoming req see
system.mem_ctrls1.rdQLenPdf::7                      0                       # What read queue length does an incoming req see
system.mem_ctrls1.rdQLenPdf::8                      0                       # What read queue length does an incoming req see
system.mem_ctrls1.rdQLenPdf::9                      0                       # What read queue length does an incoming req see
system.mem_ctrls1.rdQLenPdf::10                     0                       # What read queue length does an incoming req see
system.mem_ctrls1.rdQLenPdf::11                     0                       # What read queue length does an incoming req see
system.mem_ctrls1.rdQLenPdf::12                     0                       # What read queue length does an incoming req see
system.mem_ctrls1.rdQLenPdf::13                     0                       # What read queue length does an incoming req see
system.mem_ctrls1.rdQLenPdf::14                     0                       # What read queue length does an incoming req see
system.mem_ctrls1.rdQLenPdf::15                     0                       # What read queue length does an incoming req see
system.mem_ctrls1.rdQLenPdf::16                     0                       # What read queue length does an incoming req see
system.mem_ctrls1.rdQLenPdf::17                     0                       # What read queue length does an incoming req see
system.mem_ctrls1.rdQLenPdf::18                     0                       # What read queue length does an incoming req see
system.mem_ctrls1.rdQLenPdf::19                     0                       # What read queue length does an incoming req see
system.mem_ctrls1.rdQLenPdf::20                     0                       # What read queue length does an incoming req see
system.mem_ctrls1.rdQLenPdf::21                     0                       # What read queue length does an incoming req see
system.mem_ctrls1.rdQLenPdf::22                     0                       # What read queue length does an incoming req see
system.mem_ctrls1.rdQLenPdf::23                     0                       # What read queue length does an incoming req see
system.mem_ctrls1.rdQLenPdf::24                     0                       # What read queue length does an incoming req see
system.mem_ctrls1.rdQLenPdf::25                     0                       # What read queue length does an incoming req see
system.mem_ctrls1.rdQLenPdf::26                     0                       # What read queue length does an incoming req see
system.mem_ctrls1.rdQLenPdf::27                     0                       # What read queue length does an incoming req see
system.mem_ctrls1.rdQLenPdf::28                     0                       # What read queue length does an incoming req see
system.mem_ctrls1.rdQLenPdf::29                     0                       # What read queue length does an incoming req see
system.mem_ctrls1.rdQLenPdf::30                     0                       # What read queue length does an incoming req see
system.mem_ctrls1.rdQLenPdf::31                     0                       # What read queue length does an incoming req see
system.mem_ctrls1.wrQLenPdf::0                      2                       # What write queue length does an incoming req see
system.mem_ctrls1.wrQLenPdf::1                      2                       # What write queue length does an incoming req see
system.mem_ctrls1.wrQLenPdf::2                      2                       # What write queue length does an incoming req see
system.mem_ctrls1.wrQLenPdf::3                      2                       # What write queue length does an incoming req see
system.mem_ctrls1.wrQLenPdf::4                      2                       # What write queue length does an incoming req see
system.mem_ctrls1.wrQLenPdf::5                      2                       # What write queue length does an incoming req see
system.mem_ctrls1.wrQLenPdf::6                      2                       # What write queue length does an incoming req see
system.mem_ctrls1.wrQLenPdf::7                      2                       # What write queue length does an incoming req see
system.mem_ctrls1.wrQLenPdf::8                      2                       # What write queue length does an incoming req see
system.mem_ctrls1.wrQLenPdf::9                      2                       # What write queue length does an incoming req see
system.mem_ctrls1.wrQLenPdf::10                     2                       # What write queue length does an incoming req see
system.mem_ctrls1.wrQLenPdf::11                     2                       # What write queue length does an incoming req see
system.mem_ctrls1.wrQLenPdf::12                     2                       # What write queue length does an incoming req see
system.mem_ctrls1.wrQLenPdf::13                     2                       # What write queue length does an incoming req see
system.mem_ctrls1.wrQLenPdf::14                     2                       # What write queue length does an incoming req see
system.mem_ctrls1.wrQLenPdf::15                209212                       # What write queue length does an incoming req see
system.mem_ctrls1.wrQLenPdf::16                218193                       # What write queue length does an incoming req see
system.mem_ctrls1.wrQLenPdf::17                385508                       # What write queue length does an incoming req see
system.mem_ctrls1.wrQLenPdf::18                398579                       # What write queue length does an incoming req see
system.mem_ctrls1.wrQLenPdf::19                400400                       # What write queue length does an incoming req see
system.mem_ctrls1.wrQLenPdf::20                400013                       # What write queue length does an incoming req see
system.mem_ctrls1.wrQLenPdf::21                399719                       # What write queue length does an incoming req see
system.mem_ctrls1.wrQLenPdf::22                399634                       # What write queue length does an incoming req see
system.mem_ctrls1.wrQLenPdf::23                399782                       # What write queue length does an incoming req see
system.mem_ctrls1.wrQLenPdf::24                399675                       # What write queue length does an incoming req see
system.mem_ctrls1.wrQLenPdf::25                399657                       # What write queue length does an incoming req see
system.mem_ctrls1.wrQLenPdf::26                399534                       # What write queue length does an incoming req see
system.mem_ctrls1.wrQLenPdf::27                399572                       # What write queue length does an incoming req see
system.mem_ctrls1.wrQLenPdf::28                399979                       # What write queue length does an incoming req see
system.mem_ctrls1.wrQLenPdf::29                400368                       # What write queue length does an incoming req see
system.mem_ctrls1.wrQLenPdf::30                401549                       # What write queue length does an incoming req see
system.mem_ctrls1.wrQLenPdf::31                398686                       # What write queue length does an incoming req see
system.mem_ctrls1.wrQLenPdf::32                398282                       # What write queue length does an incoming req see
system.mem_ctrls1.wrQLenPdf::33                   381                       # What write queue length does an incoming req see
system.mem_ctrls1.wrQLenPdf::34                    60                       # What write queue length does an incoming req see
system.mem_ctrls1.wrQLenPdf::35                    12                       # What write queue length does an incoming req see
system.mem_ctrls1.wrQLenPdf::36                     1                       # What write queue length does an incoming req see
system.mem_ctrls1.wrQLenPdf::37                     0                       # What write queue length does an incoming req see
system.mem_ctrls1.wrQLenPdf::38                     0                       # What write queue length does an incoming req see
system.mem_ctrls1.wrQLenPdf::39                     0                       # What write queue length does an incoming req see
system.mem_ctrls1.wrQLenPdf::40                     0                       # What write queue length does an incoming req see
system.mem_ctrls1.wrQLenPdf::41                     0                       # What write queue length does an incoming req see
system.mem_ctrls1.wrQLenPdf::42                     0                       # What write queue length does an incoming req see
system.mem_ctrls1.wrQLenPdf::43                     0                       # What write queue length does an incoming req see
system.mem_ctrls1.wrQLenPdf::44                     0                       # What write queue length does an incoming req see
system.mem_ctrls1.wrQLenPdf::45                     0                       # What write queue length does an incoming req see
system.mem_ctrls1.wrQLenPdf::46                     0                       # What write queue length does an incoming req see
system.mem_ctrls1.wrQLenPdf::47                     0                       # What write queue length does an incoming req see
system.mem_ctrls1.wrQLenPdf::48                     0                       # What write queue length does an incoming req see
system.mem_ctrls1.wrQLenPdf::49                     0                       # What write queue length does an incoming req see
system.mem_ctrls1.wrQLenPdf::50                     0                       # What write queue length does an incoming req see
system.mem_ctrls1.wrQLenPdf::51                     0                       # What write queue length does an incoming req see
system.mem_ctrls1.wrQLenPdf::52                     0                       # What write queue length does an incoming req see
system.mem_ctrls1.wrQLenPdf::53                     0                       # What write queue length does an incoming req see
system.mem_ctrls1.wrQLenPdf::54                     0                       # What write queue length does an incoming req see
system.mem_ctrls1.wrQLenPdf::55                     0                       # What write queue length does an incoming req see
system.mem_ctrls1.wrQLenPdf::56                     0                       # What write queue length does an incoming req see
system.mem_ctrls1.wrQLenPdf::57                     0                       # What write queue length does an incoming req see
system.mem_ctrls1.wrQLenPdf::58                     0                       # What write queue length does an incoming req see
system.mem_ctrls1.wrQLenPdf::59                     0                       # What write queue length does an incoming req see
system.mem_ctrls1.wrQLenPdf::60                     0                       # What write queue length does an incoming req see
system.mem_ctrls1.wrQLenPdf::61                     0                       # What write queue length does an incoming req see
system.mem_ctrls1.wrQLenPdf::62                     0                       # What write queue length does an incoming req see
system.mem_ctrls1.wrQLenPdf::63                     0                       # What write queue length does an incoming req see
system.mem_ctrls1.bytesPerActivate::samples     14736236                       # Bytes accessed per row activation
system.mem_ctrls1.bytesPerActivate::mean    94.207338                       # Bytes accessed per row activation
system.mem_ctrls1.bytesPerActivate::gmean    82.704204                       # Bytes accessed per row activation
system.mem_ctrls1.bytesPerActivate::stdev    64.662154                       # Bytes accessed per row activation
system.mem_ctrls1.bytesPerActivate::0-127     10640794     72.21%     72.21% # Bytes accessed per row activation
system.mem_ctrls1.bytesPerActivate::128-255      3339645     22.66%     94.87% # Bytes accessed per row activation
system.mem_ctrls1.bytesPerActivate::256-383       619586      4.20%     99.08% # Bytes accessed per row activation
system.mem_ctrls1.bytesPerActivate::384-511        93156      0.63%     99.71% # Bytes accessed per row activation
system.mem_ctrls1.bytesPerActivate::512-639        24430      0.17%     99.87% # Bytes accessed per row activation
system.mem_ctrls1.bytesPerActivate::640-767         9363      0.06%     99.94% # Bytes accessed per row activation
system.mem_ctrls1.bytesPerActivate::768-895         4457      0.03%     99.97% # Bytes accessed per row activation
system.mem_ctrls1.bytesPerActivate::896-1023         2356      0.02%     99.98% # Bytes accessed per row activation
system.mem_ctrls1.bytesPerActivate::1024-1151         2449      0.02%    100.00% # Bytes accessed per row activation
system.mem_ctrls1.bytesPerActivate::total     14736236                       # Bytes accessed per row activation
system.mem_ctrls1.rdPerTurnAround::samples       397926                       # Reads before turning the bus around for writes
system.mem_ctrls1.rdPerTurnAround::mean     37.400876                       # Reads before turning the bus around for writes
system.mem_ctrls1.rdPerTurnAround::stdev   300.945821                       # Reads before turning the bus around for writes
system.mem_ctrls1.rdPerTurnAround::0-8191       397904     99.99%     99.99% # Reads before turning the bus around for writes
system.mem_ctrls1.rdPerTurnAround::8192-16383           12      0.00%    100.00% # Reads before turning the bus around for writes
system.mem_ctrls1.rdPerTurnAround::16384-24575            3      0.00%    100.00% # Reads before turning the bus around for writes
system.mem_ctrls1.rdPerTurnAround::24576-32767            1      0.00%    100.00% # Reads before turning the bus around for writes
system.mem_ctrls1.rdPerTurnAround::32768-40959            1      0.00%    100.00% # Reads before turning the bus around for writes
system.mem_ctrls1.rdPerTurnAround::40960-49151            2      0.00%    100.00% # Reads before turning the bus around for writes
system.mem_ctrls1.rdPerTurnAround::49152-57343            1      0.00%    100.00% # Reads before turning the bus around for writes
system.mem_ctrls1.rdPerTurnAround::65536-73727            1      0.00%    100.00% # Reads before turning the bus around for writes
system.mem_ctrls1.rdPerTurnAround::131072-139263            1      0.00%    100.00% # Reads before turning the bus around for writes
system.mem_ctrls1.rdPerTurnAround::total       397926                       # Reads before turning the bus around for writes
system.mem_ctrls1.wrPerTurnAround::samples       397926                       # Writes before turning the bus around for reads
system.mem_ctrls1.wrPerTurnAround::mean     17.110737                       # Writes before turning the bus around for reads
system.mem_ctrls1.wrPerTurnAround::gmean    17.078306                       # Writes before turning the bus around for reads
system.mem_ctrls1.wrPerTurnAround::stdev     1.053790                       # Writes before turning the bus around for reads
system.mem_ctrls1.wrPerTurnAround::16          182720     45.92%     45.92% # Writes before turning the bus around for reads
system.mem_ctrls1.wrPerTurnAround::17            4906      1.23%     47.15% # Writes before turning the bus around for reads
system.mem_ctrls1.wrPerTurnAround::18          195300     49.08%     96.23% # Writes before turning the bus around for reads
system.mem_ctrls1.wrPerTurnAround::19           13876      3.49%     99.72% # Writes before turning the bus around for reads
system.mem_ctrls1.wrPerTurnAround::20             914      0.23%     99.95% # Writes before turning the bus around for reads
system.mem_ctrls1.wrPerTurnAround::21             135      0.03%     99.98% # Writes before turning the bus around for reads
system.mem_ctrls1.wrPerTurnAround::22              37      0.01%     99.99% # Writes before turning the bus around for reads
system.mem_ctrls1.wrPerTurnAround::23              18      0.00%     99.99% # Writes before turning the bus around for reads
system.mem_ctrls1.wrPerTurnAround::24              11      0.00%    100.00% # Writes before turning the bus around for reads
system.mem_ctrls1.wrPerTurnAround::25               4      0.00%    100.00% # Writes before turning the bus around for reads
system.mem_ctrls1.wrPerTurnAround::26               3      0.00%    100.00% # Writes before turning the bus around for reads
system.mem_ctrls1.wrPerTurnAround::27               1      0.00%    100.00% # Writes before turning the bus around for reads
system.mem_ctrls1.wrPerTurnAround::29               1      0.00%    100.00% # Writes before turning the bus around for reads
system.mem_ctrls1.wrPerTurnAround::total       397926                       # Writes before turning the bus around for reads
system.mem_ctrls1.totQLat                393870074030                       # Total ticks spent queuing
system.mem_ctrls1.totMemAccLat           672922330280                       # Total ticks spent from burst creation until serviced by the DRAM
system.mem_ctrls1.totBusLat               74413935000                       # Total ticks spent in databus transfers
system.mem_ctrls1.avgQLat                    26464.81                       # Average queueing delay per DRAM burst
system.mem_ctrls1.avgBusLat                   5000.00                       # Average bus latency per DRAM burst
system.mem_ctrls1.avgMemAccLat               45214.81                       # Average memory access latency per DRAM burst
system.mem_ctrls1.avgRdBW                      195.39                       # Average DRAM read bandwidth in MiByte/s
system.mem_ctrls1.avgWrBW                       89.39                       # Average achieved write bandwidth in MiByte/s
system.mem_ctrls1.avgRdBWSys                   195.40                       # Average system read bandwidth in MiByte/s
system.mem_ctrls1.avgWrBWSys                    89.39                       # Average system write bandwidth in MiByte/s
system.mem_ctrls1.peakBW                     12800.00                       # Theoretical peak bandwidth in MiByte/s
system.mem_ctrls1.busUtil                        2.22                       # Data bus utilization in percentage
system.mem_ctrls1.busUtilRead                    1.53                       # Data bus utilization in percentage for reads
system.mem_ctrls1.busUtilWrite                   0.70                       # Data bus utilization in percentage for writes
system.mem_ctrls1.avgRdQLen                      1.02                       # Average read queue length when enqueuing
system.mem_ctrls1.avgWrQLen                     24.79                       # Average write queue length when enqueuing
system.mem_ctrls1.readRowHits                 5346943                       # Number of row buffer hits during reads
system.mem_ctrls1.writeRowHits                1608408                       # Number of row buffer hits during writes
system.mem_ctrls1.readRowHitRate                35.93                       # Row buffer hit rate for reads
system.mem_ctrls1.writeRowHitRate               23.62                       # Row buffer hit rate for writes
system.mem_ctrls1.avgGap                    224725.17                       # Average gap between requests
system.mem_ctrls1.pageHitRate                   32.06                       # Row buffer hit rate, read and write combined
system.mem_ctrls1_0.actEnergy             52561002900                       # Energy for activate commands per rank (pJ)
system.mem_ctrls1_0.preEnergy             27936827985                       # Energy for precharge commands per rank (pJ)
system.mem_ctrls1_0.readEnergy            53107991160                       # Energy for read commands per rank (pJ)
system.mem_ctrls1_0.writeEnergy           17775806940                       # Energy for write commands per rank (pJ)
system.mem_ctrls1_0.refreshEnergy        382185610560.000061                       # Energy for refresh commands per rank (pJ)
system.mem_ctrls1_0.actBackEnergy        324244941180                       # Energy for active background per rank (pJ)
system.mem_ctrls1_0.preBackEnergy          9798372000                       # Energy for precharge background per rank (pJ)
system.mem_ctrls1_0.actPowerDownEnergy   1656207339840                       # Energy for active power-down per rank (pJ)
system.mem_ctrls1_0.prePowerDownEnergy   156080079840                       # Energy for precharge power-down per rank (pJ)
system.mem_ctrls1_0.selfRefreshEnergy     28992413415                       # Energy for self refresh per rank (pJ)
system.mem_ctrls1_0.totalEnergy          2708924360520                       # Total energy per rank (pJ)
system.mem_ctrls1_0.averagePower           555.705620                       # Core power per rank (mW)
system.mem_ctrls1_0.totalIdleTime        4138082194696                       # Total Idle time Per DRAM Rank
system.mem_ctrls1_0.memoryStateTime::IDLE   6039672311                       # Time in different power states
system.mem_ctrls1_0.memoryStateTime::REF 161727666000                       # Time in different power states
system.mem_ctrls1_0.memoryStateTime::SREF  99599169859                       # Time in different power states
system.mem_ctrls1_0.memoryStateTime::PRE_PDN 406458447696                       # Time in different power states
system.mem_ctrls1_0.memoryStateTime::ACT 568897389740                       # Time in different power states
system.mem_ctrls1_0.memoryStateTime::ACT_PDN 3632024743678                       # Time in different power states
system.mem_ctrls1_1.actEnergy             52655772120                       # Energy for activate commands per rank (pJ)
system.mem_ctrls1_1.preEnergy             27987187635                       # Energy for precharge commands per rank (pJ)
system.mem_ctrls1_1.readEnergy            53155108020                       # Energy for read commands per rank (pJ)
system.mem_ctrls1_1.writeEnergy           17766165600                       # Energy for write commands per rank (pJ)
system.mem_ctrls1_1.refreshEnergy        382034409120.000061                       # Energy for refresh commands per rank (pJ)
system.mem_ctrls1_1.actBackEnergy        323626418220                       # Energy for active background per rank (pJ)
system.mem_ctrls1_1.preBackEnergy          9739473600                       # Energy for precharge background per rank (pJ)
system.mem_ctrls1_1.actPowerDownEnergy   1660131336120                       # Energy for active power-down per rank (pJ)
system.mem_ctrls1_1.prePowerDownEnergy   154539917760                       # Energy for precharge power-down per rank (pJ)
system.mem_ctrls1_1.selfRefreshEnergy     27872523120                       # Energy for self refresh per rank (pJ)
system.mem_ctrls1_1.totalEnergy          2709548537295                       # Total energy per rank (pJ)
system.mem_ctrls1_1.averagePower           555.833662                       # Core power per rank (mW)
system.mem_ctrls1_1.totalIdleTime        4139573062236                       # Total Idle time Per DRAM Rank
system.mem_ctrls1_1.memoryStateTime::IDLE   5862351759                       # Time in different power states
system.mem_ctrls1_1.memoryStateTime::REF 161659458000                       # Time in different power states
system.mem_ctrls1_1.memoryStateTime::SREF  96500743983                       # Time in different power states
system.mem_ctrls1_1.memoryStateTime::PRE_PDN 402452154410                       # Time in different power states
system.mem_ctrls1_1.memoryStateTime::ACT 567651958856                       # Time in different power states
system.mem_ctrls1_1.memoryStateTime::ACT_PDN 3640620422276                       # Time in different power states
system.pwrStateResidencyTicks::UNDEFINED 148351735406358                       # Cumulative time (in ticks) in various power states
system.cpu.branchPred.lookups                       0                       # Number of BP lookups
system.cpu.branchPred.condPredicted                 0                       # Number of conditional branches predicted
system.cpu.branchPred.condIncorrect                 0                       # Number of conditional branches incorrect
system.cpu.branchPred.BTBLookups                    0                       # Number of BTB lookups
system.cpu.branchPred.BTBHits                       0                       # Number of BTB hits
system.cpu.branchPred.BTBCorrect                    0                       # Number of correct BTB predictions (this stat may not work properly.
system.cpu.branchPred.BTBHitPct                   nan                       # BTB Hit Percentage
system.cpu.branchPred.usedRAS                       0                       # Number of times the RAS was used to get a target.
system.cpu.branchPred.RASInCorrect                  0                       # Number of incorrect RAS predictions.
system.cpu.branchPred.indirectLookups               0                       # Number of indirect predictor lookups.
system.cpu.branchPred.indirectHits                  0                       # Number of indirect target hits.
system.cpu.branchPred.indirectMisses                0                       # Number of indirect misses.
system.cpu.branchPredindirectMispredicted            0                       # Number of mispredicted indirect branches.
system.cpu_voltage_domain.voltage                   1                       # Voltage in Volts
system.cpu_clk_domain.clock                       333                       # Clock period in ticks
system.cpu.dtb.fetch_hits                           0                       # ITB hits
system.cpu.dtb.fetch_misses                         0                       # ITB misses
system.cpu.dtb.fetch_acv                            0                       # ITB acv
system.cpu.dtb.fetch_accesses                       0                       # ITB accesses
system.cpu.dtb.read_hits                           13                       # DTB read hits
system.cpu.dtb.read_misses                          0                       # DTB read misses
system.cpu.dtb.read_acv                             0                       # DTB read access violations
system.cpu.dtb.read_accesses                       13                       # DTB read accesses
system.cpu.dtb.write_hits                           0                       # DTB write hits
system.cpu.dtb.write_misses                         0                       # DTB write misses
system.cpu.dtb.write_acv                            0                       # DTB write access violations
system.cpu.dtb.write_accesses                       0                       # DTB write accesses
system.cpu.dtb.data_hits                           13                       # DTB hits
system.cpu.dtb.data_misses                          0                       # DTB misses
system.cpu.dtb.data_acv                             0                       # DTB access violations
system.cpu.dtb.data_accesses                       13                       # DTB accesses
system.cpu.itb.fetch_hits                           4                       # ITB hits
system.cpu.itb.fetch_misses                         0                       # ITB misses
system.cpu.itb.fetch_acv                            0                       # ITB acv
system.cpu.itb.fetch_accesses                       4                       # ITB accesses
system.cpu.itb.read_hits                            0                       # DTB read hits
system.cpu.itb.read_misses                          0                       # DTB read misses
system.cpu.itb.read_acv                             0                       # DTB read access violations
system.cpu.itb.read_accesses                        0                       # DTB read accesses
system.cpu.itb.write_hits                           0                       # DTB write hits
system.cpu.itb.write_misses                         0                       # DTB write misses
system.cpu.itb.write_acv                            0                       # DTB write access violations
system.cpu.itb.write_accesses                       0                       # DTB write accesses
system.cpu.itb.data_hits                            0                       # DTB hits
system.cpu.itb.data_misses                          0                       # DTB misses
system.cpu.itb.data_acv                             0                       # DTB access violations
system.cpu.itb.data_accesses                        0                       # DTB accesses
system.cpu.workload.num_syscalls                    0                       # Number of system calls
system.cpu.pwrStateResidencyTicks::ON    4874747089284                       # Cumulative time (in ticks) in various power states
[...]
system.switch_cpus_1.iq.fu_busy_rate         0.044231                       # FU busy rate (busy events/executed inst)
system.switch_cpus_1.iq.int_inst_queue_reads    574066258                       # Number of integer instruction queue reads
system.switch_cpus_1.iq.int_inst_queue_writes     63757176                       # Number of integer instruction queue writes
system.switch_cpus_1.iq.int_inst_queue_wakeup_accesses     61903949                       # Number of integer instruction queue wakeup accesses
system.switch_cpus_1.iq.fp_inst_queue_reads    332683914                       # Number of floating instruction queue reads
system.switch_cpus_1.iq.fp_inst_queue_writes    147945778                       # Number of floating instruction queue writes
system.switch_cpus_1.iq.fp_inst_queue_wakeup_accesses    142411023                       # Number of floating instruction queue wakeup accesses
system.switch_cpus_1.iq.int_alu_accesses     62207536                       # Number of integer alu accesses
system.switch_cpus_1.iq.fp_alu_accesses     171234467                       # Number of floating point alu accesses
system.switch_cpus_1.iew.lsq.thread0.forwLoads          902                       # Number of loads that had data forwarded from stores
system.switch_cpus_1.iew.lsq.thread0.invAddrLoads            0                       # Number of loads ignored due to an invalid address
system.switch_cpus_1.iew.lsq.thread0.squashedLoads      1283162                       # Number of loads squashed
system.switch_cpus_1.iew.lsq.thread0.ignoredResponses            0                       # Number of memory responses ignored because the instruction is squashed
system.switch_cpus_1.iew.lsq.thread0.memOrderViolation          229                       # Number of memory ordering violations
system.switch_cpus_1.iew.lsq.thread0.squashedStores       362635                       # Number of stores squashed
system.switch_cpus_1.iew.lsq.thread0.invAddrSwpfs            0                       # Number of software prefetches ignored due to an invalid address
system.switch_cpus_1.iew.lsq.thread0.blockedLoads            0                       # Number of blocked loads due to partial load-store forwarding
system.switch_cpus_1.iew.lsq.thread0.rescheduledLoads            0                       # Number of loads that were rescheduled
system.switch_cpus_1.iew.lsq.thread0.cacheBlocked     19311002                       # Number of times an access to memory failed due to the cache being blocked
system.switch_cpus_1.iew.iewIdleCycles              0                       # Number of cycles IEW is idle
system.switch_cpus_1.iew.iewSquashCycles        59394                       # Number of cycles IEW is squashing
system.switch_cpus_1.iew.iewBlockCycles      58976914                       # Number of cycles IEW is blocking
system.switch_cpus_1.iew.iewUnblockCycles    120492538                       # Number of cycles IEW is unblocking
system.switch_cpus_1.iew.iewDispatchedInsts    205895598                       # Number of instructions dispatched to IQ
system.switch_cpus_1.iew.iewDispSquashedInsts        63562                       # Number of squashed instructions skipped by dispatch
system.switch_cpus_1.iew.iewDispLoadInsts     43967795                       # Number of dispatched load instructions
system.switch_cpus_1.iew.iewDispStoreInsts     13071283                       # Number of dispatched store instructions
system.switch_cpus_1.iew.iewDispNonSpecInsts            0                       # Number of dispatched non-speculative instructions
system.switch_cpus_1.iew.iewIQFullEvents       801357                       # Number of times the IQ has become full, causing a stall
system.switch_cpus_1.iew.iewLSQFullEvents    119084708                       # Number of times the LSQ has become full, causing a stall
system.switch_cpus_1.iew.memOrderViolationEvents          229                       # Number of memory order violations
system.switch_cpus_1.iew.predictedTakenIncorrect        20756                       # Number of branches that were predicted taken incorrectly
system.switch_cpus_1.iew.predictedNotTakenIncorrect           65                       # Number of branches that were predicted not taken incorrectly
system.switch_cpus_1.iew.branchMispredicts        20821                       # Number of branch mispredicts detected at execute
system.switch_cpus_1.iew.iewExecutedInsts    223487192                       # Number of executed instructions
system.switch_cpus_1.iew.iewExecLoadInsts     62624414                       # Number of load instructions executed
system.switch_cpus_1.iew.iewExecSquashedInsts        66831                       # Number of squashed instructions skipped in execute
system.switch_cpus_1.iew.exec_swp                   0                       # number of swp insts executed
system.switch_cpus_1.iew.exec_nop               44186                       # number of nop insts executed
system.switch_cpus_1.iew.exec_refs           75439686                       # number of memory reference insts executed
system.switch_cpus_1.iew.exec_branches        4397911                       # Number of branches executed
system.switch_cpus_1.iew.exec_stores         12815272                       # Number of stores executed
system.switch_cpus_1.iew.exec_rate           0.496944                       # Inst execution rate
system.switch_cpus_1.iew.wb_sent            204465827                       # cumulative count of insts sent to commit
system.switch_cpus_1.iew.wb_count           204314972                       # cumulative count of insts written-back
system.switch_cpus_1.iew.wb_producers       117114039                       # num instructions producing a value
system.switch_cpus_1.iew.wb_consumers       124081734                       # num instructions consuming a value
system.switch_cpus_1.iew.wb_rate             0.454313                       # insts written-back per cycle
system.switch_cpus_1.iew.wb_fanout           0.943846                       # average fanout of values written-back
system.switch_cpus_1.commit.commitSquashedInsts      5398298                       # The number of squashed insts skipped by commit
system.switch_cpus_1.commit.branchMispredicts        20722                       # The number of times a branch was mispredicted
system.switch_cpus_1.commit.committed_per_cycle::samples    449020122                       # Number of insts commited each cycle
system.switch_cpus_1.commit.committed_per_cycle::mean     0.445505                       # Number of insts commited each cycle
system.switch_cpus_1.commit.committed_per_cycle::stdev     1.767078                       # Number of insts commited each cycle
system.switch_cpus_1.commit.committed_per_cycle::underflows            0      0.00%      0.00% # Number of insts commited each cycle
system.switch_cpus_1.commit.committed_per_cycle::0    420396089     93.63%     93.63% # Number of insts commited each cycle
system.switch_cpus_1.commit.committed_per_cycle::1       423774      0.09%     93.72% # Number of insts commited each cycle
system.switch_cpus_1.commit.committed_per_cycle::2       327014      0.07%     93.79% # Number of insts commited each cycle
system.switch_cpus_1.commit.committed_per_cycle::3      1938894      0.43%     94.22% # Number of insts commited each cycle
system.switch_cpus_1.commit.committed_per_cycle::4      1615663      0.36%     94.58% # Number of insts commited each cycle
system.switch_cpus_1.commit.committed_per_cycle::5      1008945      0.22%     94.81% # Number of insts commited each cycle
system.switch_cpus_1.commit.committed_per_cycle::6       860708      0.19%     95.00% # Number of insts commited each cycle
system.switch_cpus_1.commit.committed_per_cycle::7      3117757      0.69%     95.69% # Number of insts commited each cycle
system.switch_cpus_1.commit.committed_per_cycle::8     19331278      4.31%    100.00% # Number of insts commited each cycle
system.switch_cpus_1.commit.committed_per_cycle::overflows            0      0.00%    100.00% # Number of insts commited each cycle
system.switch_cpus_1.commit.committed_per_cycle::min_value            0                       # Number of insts commited each cycle
system.switch_cpus_1.commit.committed_per_cycle::max_value            8                       # Number of insts commited each cycle
system.switch_cpus_1.commit.committed_per_cycle::total    449020122                       # Number of insts commited each cycle
system.switch_cpus_1.commit.committedInsts    200040632                       # Number of instructions committed
system.switch_cpus_1.commit.committedOps    200040632                       # Number of ops (including micro ops) committed
system.switch_cpus_1.commit.swp_count               0                       # Number of s/w prefetches committed
system.switch_cpus_1.commit.refs             55393254                       # Number of memory references committed
system.switch_cpus_1.commit.loads            42684612                       # Number of loads committed
system.switch_cpus_1.commit.membars                 0                       # Number of memory barriers committed
system.switch_cpus_1.commit.branches          4276396                       # Number of branches committed
system.switch_cpus_1.commit.fp_insts        139823775                       # Number of committed floating point instructions.
system.switch_cpus_1.commit.int_insts       115282767                       # Number of committed integer instructions.
system.switch_cpus_1.commit.function_calls            0                       # Number of function calls committed.
system.switch_cpus_1.commit.op_class_0::No_OpClass        40630      0.02%      0.02% # Class of committed instruction
system.switch_cpus_1.commit.op_class_0::IntAlu     59889513     29.94%     29.96% # Class of committed instruction
system.switch_cpus_1.commit.op_class_0::IntMult            0      0.00%     29.96% # Class of committed instruction
system.switch_cpus_1.commit.op_class_0::IntDiv            0      0.00%     29.96% # Class of committed instruction
system.switch_cpus_1.commit.op_class_0::FloatAdd     59302063     29.65%     59.60% # Class of committed instruction
system.switch_cpus_1.commit.op_class_0::FloatCmp            0      0.00%     59.60% # Class of committed instruction
system.switch_cpus_1.commit.op_class_0::FloatCvt            0      0.00%     59.60% # Class of committed instruction
system.switch_cpus_1.commit.op_class_0::FloatMult     25415172     12.71%     72.31% # Class of committed instruction
system.switch_cpus_1.commit.op_class_0::FloatMultAcc            0      0.00%     72.31% # Class of committed instruction
system.switch_cpus_1.commit.op_class_0::FloatDiv            0      0.00%     72.31% # Class of committed instruction
system.switch_cpus_1.commit.op_class_0::FloatMisc            0      0.00%     72.31% # Class of committed instruction
system.switch_cpus_1.commit.op_class_0::FloatSqrt            0      0.00%     72.31% # Class of committed instruction
system.switch_cpus_1.commit.op_class_0::SimdAdd            0      0.00%     72.31% # Class of committed instruction
system.switch_cpus_1.commit.op_class_0::SimdAddAcc            0      0.00%     72.31% # Class of committed instruction
system.switch_cpus_1.commit.op_class_0::SimdAlu            0      0.00%     72.31% # Class of committed instruction
system.switch_cpus_1.commit.op_class_0::SimdCmp            0      0.00%     72.31% # Class of committed instruction
system.switch_cpus_1.commit.op_class_0::SimdCvt            0      0.00%     72.31% # Class of committed instruction
system.switch_cpus_1.commit.op_class_0::SimdMisc            0      0.00%     72.31% # Class of committed instruction
system.switch_cpus_1.commit.op_class_0::SimdMult            0      0.00%     72.31% # Class of committed instruction
system.switch_cpus_1.commit.op_class_0::SimdMultAcc            0      0.00%     72.31% # Class of committed instruction
system.switch_cpus_1.commit.op_class_0::SimdShift            0      0.00%     72.31% # Class of committed instruction
system.switch_cpus_1.commit.op_class_0::SimdShiftAcc            0      0.00%     72.31% # Class of committed instruction
system.switch_cpus_1.commit.op_class_0::SimdSqrt            0      0.00%     72.31% # Class of committed instruction
system.switch_cpus_1.commit.op_class_0::SimdFloatAdd            0      0.00%     72.31% # Class of committed instruction
system.switch_cpus_1.commit.op_class_0::SimdFloatAlu            0      0.00%     72.31% # Class of committed instruction
system.switch_cpus_1.commit.op_class_0::SimdFloatCmp            0      0.00%     72.31% # Class of committed instruction
system.switch_cpus_1.commit.op_class_0::SimdFloatCvt            0      0.00%     72.31% # Class of committed instruction
system.switch_cpus_1.commit.op_class_0::SimdFloatDiv            0      0.00%     72.31% # Class of committed instruction
system.switch_cpus_1.commit.op_class_0::SimdFloatMisc            0      0.00%     72.31% # Class of committed instruction
system.switch_cpus_1.commit.op_class_0::SimdFloatMult            0      0.00%     72.31% # Class of committed instruction
system.switch_cpus_1.commit.op_class_0::SimdFloatMultAcc            0      0.00%     72.31% # Class of committed instruction
system.switch_cpus_1.commit.op_class_0::SimdFloatSqrt            0      0.00%     72.31% # Class of committed instruction
system.switch_cpus_1.commit.op_class_0::MemRead       285658      0.14%     72.45% # Class of committed instruction
system.switch_cpus_1.commit.op_class_0::MemWrite         1056      0.00%     72.45% # Class of committed instruction
system.switch_cpus_1.commit.op_class_0::FloatMemRead     42398954     21.20%     93.65% # Class of committed instruction
system.switch_cpus_1.commit.op_class_0::FloatMemWrite     12707586      6.35%    100.00% # Class of committed instruction
system.switch_cpus_1.commit.op_class_0::IprAccess            0      0.00%    100.00% # Class of committed instruction
system.switch_cpus_1.commit.op_class_0::InstPrefetch            0      0.00%    100.00% # Class of committed instruction
system.switch_cpus_1.commit.op_class_0::total    200040632                       # Class of committed instruction
system.switch_cpus_1.commit.bw_lim_events     19331278                       # number cycles where commit BW limit reached
system.switch_cpus_1.rob.rob_reads          634627729                       # The number of ROB reads
system.switch_cpus_1.rob.rob_writes         411580606                       # The number of ROB writes
system.switch_cpus_1.timesIdled                     7                       # Number of times that the entire CPU went into an idle state and unscheduled itself
system.switch_cpus_1.idleCycles                   661                       # Total number of cycles that the CPU has spent unscheduled due to idling
system.switch_cpus_1.committedInsts         200000002                       # Number of Instructions Simulated
system.switch_cpus_1.committedOps           200000002                       # Number of Ops (including micro ops) Simulated
system.switch_cpus_1.cpi                     2.248617                       # CPI: Cycles Per Instruction
system.switch_cpus_1.cpi_total               2.248617                       # CPI: Total CPI of All Threads
system.switch_cpus_1.ipc                     0.444718                       # IPC: Instructions Per Cycle
system.switch_cpus_1.ipc_total               0.444718                       # IPC: Total IPC of All Threads
system.switch_cpus_1.int_regfile_reads      146312189                       # number of integer regfile reads
system.switch_cpus_1.int_regfile_writes      57505204                       # number of integer regfile writes
system.switch_cpus_1.fp_regfile_reads       185693500                       # number of floating regfile reads
system.switch_cpus_1.fp_regfile_writes      129606235                       # number of floating regfile writes
system.tol3bus.snoop_filter.tot_requests     68726984                       # Total number of requests made to the snoop filter.
system.tol3bus.snoop_filter.hit_single_requests     34361204                       # Number of requests hitting in the snoop filter with a single holder of the requested data.
system.tol3bus.snoop_filter.hit_multi_requests            0                       # Number of requests hitting in the snoop filter with multiple (>1) holders of the requested data.
system.tol3bus.snoop_filter.tot_snoops        1292343                       # Total number of snoops made to the snoop filter.
system.tol3bus.snoop_filter.hit_single_snoops      1292343                       # Number of snoops hitting in the snoop filter with a single holder of the requested data.
system.tol3bus.snoop_filter.hit_multi_snoops            0                       # Number of snoops hitting in the snoop filter with multiple (>1) holders of the requested data.
system.tol3bus.pwrStateResidencyTicks::UNDEFINED 148351735406358                       # Cumulative time (in ticks) in various power states
system.tol3bus.trans_dist::ReadResp          34080133                       # Transaction distribution
system.tol3bus.trans_dist::WritebackDirty     27893196                       # Transaction distribution
system.tol3bus.trans_dist::CleanEvict        36798140                       # Transaction distribution
system.tol3bus.trans_dist::UpgradeReq              10                       # Transaction distribution
system.tol3bus.trans_dist::UpgradeResp             10                       # Transaction distribution
system.tol3bus.trans_dist::ReadExReq           285647                       # Transaction distribution
system.tol3bus.trans_dist::ReadExResp          285647                       # Transaction distribution
system.tol3bus.trans_dist::ReadSharedReq     34080133                       # Transaction distribution
system.tol3bus.pkt_count_system.cpu.l2.mem_side::system.l3.cpu_side    103092774                       # Packet count per connected master and slave (bytes)
system.tol3bus.pkt_size_system.cpu.l2.mem_side::system.l3.cpu_side   3113043200                       # Cumulative packet size per connected master and slave (bytes)
system.tol3bus.snoops                        30330142                       # Total snoops (count)
system.tol3bus.snoopTraffic                 871531264                       # Total snoop traffic (bytes)
system.tol3bus.snoop_fanout::samples         64695932                       # Request fanout histogram
system.tol3bus.snoop_fanout::mean            0.019976                       # Request fanout histogram
system.tol3bus.snoop_fanout::stdev           0.139916                       # Request fanout histogram
system.tol3bus.snoop_fanout::underflows             0      0.00%      0.00% # Request fanout histogram
system.tol3bus.snoop_fanout::0               63403589     98.00%     98.00% # Request fanout histogram
system.tol3bus.snoop_fanout::1                1292343      2.00%    100.00% # Request fanout histogram
system.tol3bus.snoop_fanout::overflows              0      0.00%    100.00% # Request fanout histogram
system.tol3bus.snoop_fanout::min_value              0                       # Request fanout histogram
system.tol3bus.snoop_fanout::max_value              1                       # Request fanout histogram
system.tol3bus.snoop_fanout::total           64695932                       # Request fanout histogram
system.tol3bus.reqLayer0.occupancy        27639833832                       # Layer occupancy (ticks)
system.tol3bus.reqLayer0.utilization              0.6                       # Layer utilization (%)
system.tol3bus.respLayer0.occupancy       22887612810                       # Layer occupancy (ticks)
system.tol3bus.respLayer0.utilization             0.5                       # Layer utilization (%)

---------- End Simulation Statistics   ----------
