
---------- Begin Simulation Statistics ----------
sim_seconds                                  4.299005                       # Number of seconds simulated
sim_ticks                                4299005296395                       # Number of ticks simulated
final_tick                               403987900198842                       # Number of ticks from beginning of simulation (restored from checkpoints and never reset)
sim_freq                                 1000000000000                       # Frequency of simulated ticks
host_inst_rate                                 201893                       # Simulator instruction rate (inst/s)
host_op_rate                                   201893                       # Simulator op (including micro ops) rate (op/s)
host_tick_rate                              723283686                       # Simulator tick rate (ticks/s)
host_mem_usage                                2390188                       # Number of bytes of host memory used
host_seconds                                  5943.73                       # Real time elapsed on the host
sim_insts                                  1200000004                       # Number of instructions simulated
sim_ops                                    1200000004                       # Number of ops (including micro ops) simulated
system.voltage_domain.voltage                       1                       # Voltage in Volts
system.clk_domain.clock                          1000                       # Clock period in ticks
system.mem_ctrls0.pwrStateResidencyTicks::UNDEFINED 403987900198842                       # Cumulative time (in ticks) in various power states
system.mem_ctrls0.bytes_read::cpu.inst            192                       # Number of bytes read from this memory
system.mem_ctrls0.bytes_read::switch_cpus.inst         1280                       # Number of bytes read from this memory
system.mem_ctrls0.bytes_read::switch_cpus.data    935269632                       # Number of bytes read from this memory
system.mem_ctrls0.bytes_read::switch_cpus_1.inst           64                       # Number of bytes read from this memory
system.mem_ctrls0.bytes_read::switch_cpus_1.data    186216512                       # Number of bytes read from this memory
system.mem_ctrls0.bytes_read::total        1121487680                       # Number of bytes read from this memory
system.mem_ctrls0.bytes_inst_read::cpu.inst          192                       # Number of instructions bytes read from this memory
system.mem_ctrls0.bytes_inst_read::switch_cpus.inst         1280                       # Number of instructions bytes read from this memory
system.mem_ctrls0.bytes_inst_read::switch_cpus_1.inst           64                       # Number of instructions bytes read from this memory
system.mem_ctrls0.bytes_inst_read::total         1536                       # Number of instructions bytes read from this memory
system.mem_ctrls0.bytes_written::writebacks    433696320                       # Number of bytes written to this memory
system.mem_ctrls0.bytes_written::total      433696320                       # Number of bytes written to this memory
system.mem_ctrls0.num_reads::cpu.inst               3                       # Number of read requests responded to by this memory
system.mem_ctrls0.num_reads::switch_cpus.inst           20                       # Number of read requests responded to by this memory
system.mem_ctrls0.num_reads::switch_cpus.data     14613588                       # Number of read requests responded to by this memory
system.mem_ctrls0.num_reads::switch_cpus_1.inst            1                       # Number of read requests responded to by this memory
system.mem_ctrls0.num_reads::switch_cpus_1.data      2909633                       # Number of read requests responded to by this memory
system.mem_ctrls0.num_reads::total           17523245                       # Number of read requests responded to by this memory
system.mem_ctrls0.num_writes::writebacks      6776505                       # Number of write requests responded to by this memory
system.mem_ctrls0.num_writes::total           6776505                       # Number of write requests responded to by this memory
system.mem_ctrls0.bw_read::cpu.inst                45                       # Total read bandwidth from this memory (bytes/s)
system.mem_ctrls0.bw_read::switch_cpus.inst          298                       # Total read bandwidth from this memory (bytes/s)
system.mem_ctrls0.bw_read::switch_cpus.data    217554892                       # Total read bandwidth from this memory (bytes/s)
system.mem_ctrls0.bw_read::switch_cpus_1.inst           15                       # Total read bandwidth from this memory (bytes/s)
system.mem_ctrls0.bw_read::switch_cpus_1.data     43316186                       # Total read bandwidth from this memory (bytes/s)
system.mem_ctrls0.bw_read::total            260871435                       # Total read bandwidth from this memory (bytes/s)
system.mem_ctrls0.bw_inst_read::cpu.inst           45                       # Instruction read bandwidth from this memory (bytes/s)
system.mem_ctrls0.bw_inst_read::switch_cpus.inst          298                       # Instruction read bandwidth from this memory (bytes/s)
system.mem_ctrls0.bw_inst_read::switch_cpus_1.inst           15                       # Instruction read bandwidth from this memory (bytes/s)
system.mem_ctrls0.bw_inst_read::total             357                       # Instruction read bandwidth from this memory (bytes/s)
system.mem_ctrls0.bw_write::writebacks      100882946                       # Write bandwidth from this memory (bytes/s)
system.mem_ctrls0.bw_write::total           100882946                       # Write bandwidth from this memory (bytes/s)
system.mem_ctrls0.bw_total::writebacks      100882946                       # Total bandwidth to/from this memory (bytes/s)
system.mem_ctrls0.bw_total::cpu.inst               45                       # Total bandwidth to/from this memory (bytes/s)
system.mem_ctrls0.bw_total::switch_cpus.inst          298                       # Total bandwidth to/from this memory (bytes/s)
system.mem_ctrls0.bw_total::switch_cpus.data    217554892                       # Total bandwidth to/from this memory (bytes/s)
system.mem_ctrls0.bw_total::switch_cpus_1.inst           15                       # Total bandwidth to/from this memory (bytes/s)
system.mem_ctrls0.bw_total::switch_cpus_1.data     43316186                       # Total bandwidth to/from this memory (bytes/s)
system.mem_ctrls0.bw_total::total           361754381                       # Total bandwidth to/from this memory (bytes/s)
system.mem_ctrls0.readReqs                   17523245                       # Number of read requests accepted
system.mem_ctrls0.writeReqs                   6776505                       # Number of write requests accepted
system.mem_ctrls0.readBursts                 17523245                       # Number of DRAM read bursts, including those serviced by the write queue
system.mem_ctrls0.writeBursts                 6776505                       # Number of DRAM write bursts, including those merged in the write queue
system.mem_ctrls0.bytesReadDRAM            1121482432                       # Total number of bytes read from DRAM
system.mem_ctrls0.bytesReadWrQ                   5248                       # Total number of bytes read from write queue
system.mem_ctrls0.bytesWritten              433694336                       # Total number of bytes written to DRAM
system.mem_ctrls0.bytesReadSys             1121487680                       # Total read bytes from the system interface side
system.mem_ctrls0.bytesWrittenSys           433696320                       # Total written bytes from the system interface side
system.mem_ctrls0.servicedByWrQ                    82                       # Number of DRAM read bursts serviced by the write queue
system.mem_ctrls0.mergedWrBursts                    0                       # Number of DRAM write bursts merged with an existing one
system.mem_ctrls0.neitherReadNorWriteReqs            0                       # Number of requests that are neither read nor write
system.mem_ctrls0.perBankRdBursts::0          1095177                       # Per bank write bursts
system.mem_ctrls0.perBankRdBursts::1          1095166                       # Per bank write bursts
system.mem_ctrls0.perBankRdBursts::2          1095261                       # Per bank write bursts
system.mem_ctrls0.perBankRdBursts::3          1095291                       # Per bank write bursts
system.mem_ctrls0.perBankRdBursts::4          1095168                       # Per bank write bursts
system.mem_ctrls0.perBankRdBursts::5          1095168                       # Per bank write bursts
system.mem_ctrls0.perBankRdBursts::6          1095167                       # Per bank write bursts
system.mem_ctrls0.perBankRdBursts::7          1095152                       # Per bank write bursts
system.mem_ctrls0.perBankRdBursts::8          1095164                       # Per bank write bursts
system.mem_ctrls0.perBankRdBursts::9          1099448                       # Per bank write bursts
system.mem_ctrls0.perBankRdBursts::10         1091064                       # Per bank write bursts
system.mem_ctrls0.perBankRdBursts::11         1095168                       # Per bank write bursts
system.mem_ctrls0.perBankRdBursts::12         1095168                       # Per bank write bursts
system.mem_ctrls0.perBankRdBursts::13         1095168                       # Per bank write bursts
system.mem_ctrls0.perBankRdBursts::14         1095265                       # Per bank write bursts
system.mem_ctrls0.perBankRdBursts::15         1095168                       # Per bank write bursts
system.mem_ctrls0.perBankWrBursts::0           229376                       # Per bank write bursts
system.mem_ctrls0.perBankWrBursts::1           302336                       # Per bank write bursts
system.mem_ctrls0.perBankWrBursts::2           520145                       # Per bank write bursts
system.mem_ctrls0.perBankWrBursts::3           617772                       # Per bank write bursts
system.mem_ctrls0.perBankWrBursts::4           618108                       # Per bank write bursts
system.mem_ctrls0.perBankWrBursts::5           616646                       # Per bank write bursts
system.mem_ctrls0.perBankWrBursts::6           616771                       # Per bank write bursts
system.mem_ctrls0.perBankWrBursts::7           618337                       # Per bank write bursts
system.mem_ctrls0.perBankWrBursts::8           617665                       # Per bank write bursts
system.mem_ctrls0.perBankWrBursts::9           545206                       # Per bank write bursts
system.mem_ctrls0.perBankWrBursts::10          327145                       # Per bank write bursts
system.mem_ctrls0.perBankWrBursts::11          229376                       # Per bank write bursts
system.mem_ctrls0.perBankWrBursts::12          229376                       # Per bank write bursts
system.mem_ctrls0.perBankWrBursts::13          229376                       # Per bank write bursts
system.mem_ctrls0.perBankWrBursts::14          229463                       # Per bank write bursts
system.mem_ctrls0.perBankWrBursts::15          229376                       # Per bank write bursts
system.mem_ctrls0.numRdRetry                        0                       # Number of times read queue was full causing retry
system.mem_ctrls0.numWrRetry                        0                       # Number of times write queue was full causing retry
system.mem_ctrls0.totGap                 4299005200158                       # Total gap between requests
system.mem_ctrls0.readPktSize::0                    0                       # Read request sizes (log2)
system.mem_ctrls0.readPktSize::1                    0                       # Read request sizes (log2)
system.mem_ctrls0.readPktSize::2                    0                       # Read request sizes (log2)
system.mem_ctrls0.readPktSize::3                    0                       # Read request sizes (log2)
system.mem_ctrls0.readPktSize::4                    0                       # Read request sizes (log2)
system.mem_ctrls0.readPktSize::5                    0                       # Read request sizes (log2)
system.mem_ctrls0.readPktSize::6             17523245                       # Read request sizes (log2)
system.mem_ctrls0.writePktSize::0                   0                       # Write request sizes (log2)
system.mem_ctrls0.writePktSize::1                   0                       # Write request sizes (log2)
system.mem_ctrls0.writePktSize::2                   0                       # Write request sizes (log2)
system.mem_ctrls0.writePktSize::3                   0                       # Write request sizes (log2)
system.mem_ctrls0.writePktSize::4                   0                       # Write request sizes (log2)
system.mem_ctrls0.writePktSize::5                   0                       # Write request sizes (log2)
system.mem_ctrls0.writePktSize::6             6776505                       # Write request sizes (log2)
system.mem_ctrls0.rdQLenPdf::0               16285279                       # What read queue length does an incoming req see
system.mem_ctrls0.rdQLenPdf::1                1195772                       # What read queue length does an incoming req see
system.mem_ctrls0.rdQLenPdf::2                  30645                       # What read queue length does an incoming req see
system.mem_ctrls0.rdQLenPdf::3                  11467                       # What read queue length does an incoming req see
system.mem_ctrls0.rdQLenPdf::4                      0                       # What read queue length does an incoming req see
system.mem_ctrls0.rdQLenPdf::5                      0                       # What read queue length does an incoming req see
system.mem_ctrls0.rdQLenPdf::6                      0                       # What read queue length does an incoming req see
system.mem_ctrls0.rdQLenPdf::7                      0                       # What read queue length does an incoming req see
system.mem_ctrls0.rdQLenPdf::8                      0                       # What read queue length does an incoming req see
system.mem_ctrls0.rdQLenPdf::9                      0                       # What read queue length does an incoming req see
system.mem_ctrls0.rdQLenPdf::10                     0                       # What read queue length does an incoming req see
system.mem_ctrls0.rdQLenPdf::11                     0                       # What read queue length does an incoming req see
system.mem_ctrls0.rdQLenPdf::12                     0                       # What read queue length does an incoming req see
system.mem_ctrls0.rdQLenPdf::13                     0                       # What read queue length does an incoming req see
system.mem_ctrls0.rdQLenPdf::14                     0                       # What read queue length does an incoming req see
system.mem_ctrls0.rdQLenPdf::15                     0                       # What read queue length does an incoming req see
system.mem_ctrls0.rdQLenPdf::16                     0                       # What read queue length does an incoming req see
system.mem_ctrls0.rdQLenPdf::17                     0                       # What read queue length does an incoming req see
system.mem_ctrls0.rdQLenPdf::18                     0                       # What read queue length does an incoming req see
system.mem_ctrls0.rdQLenPdf::19                     0                       # What read queue length does an incoming req see
system.mem_ctrls0.rdQLenPdf::20                     0                       # What read queue length does an incoming req see
system.mem_ctrls0.rdQLenPdf::21                     0                       # What read queue length does an incoming req see
system.mem_ctrls0.rdQLenPdf::22                     0                       # What read queue length does an incoming req see
system.mem_ctrls0.rdQLenPdf::23                     0                       # What read queue length does an incoming req see
system.mem_ctrls0.rdQLenPdf::24                     0                       # What read queue length does an incoming req see
system.mem_ctrls0.rdQLenPdf::25                     0                       # What read queue length does an incoming req see
system.mem_ctrls0.rdQLenPdf::26                     0                       # What read queue length does an incoming req see
system.mem_ctrls0.rdQLenPdf::27                     0                       # What read queue length does an incoming req see
system.mem_ctrls0.rdQLenPdf::28                     0                       # What read queue length does an incoming req see
system.mem_ctrls0.rdQLenPdf::29                     0                       # What read queue length does an incoming req see
system.mem_ctrls0.rdQLenPdf::30                     0                       # What read queue length does an incoming req see
system.mem_ctrls0.rdQLenPdf::31                     0                       # What read queue length does an incoming req see
system.mem_ctrls0.wrQLenPdf::0                      3                       # What write queue length does an incoming req see
system.mem_ctrls0.wrQLenPdf::1                      2                       # What write queue length does an incoming req see
system.mem_ctrls0.wrQLenPdf::2                      2                       # What write queue length does an incoming req see
system.mem_ctrls0.wrQLenPdf::3                      2                       # What write queue length does an incoming req see
system.mem_ctrls0.wrQLenPdf::4                      2                       # What write queue length does an incoming req see
system.mem_ctrls0.wrQLenPdf::5                      2                       # What write queue length does an incoming req see
system.mem_ctrls0.wrQLenPdf::6                      2                       # What write queue length does an incoming req see
system.mem_ctrls0.wrQLenPdf::7                      2                       # What write queue length does an incoming req see
system.mem_ctrls0.wrQLenPdf::8                      2                       # What write queue length does an incoming req see
system.mem_ctrls0.wrQLenPdf::9                      2                       # What write queue length does an incoming req see
system.mem_ctrls0.wrQLenPdf::10                     2                       # What write queue length does an incoming req see
system.mem_ctrls0.wrQLenPdf::11                     2                       # What write queue length does an incoming req see
system.mem_ctrls0.wrQLenPdf::12                     2                       # What write queue length does an incoming req see
system.mem_ctrls0.wrQLenPdf::13                     2                       # What write queue length does an incoming req see
system.mem_ctrls0.wrQLenPdf::14                     2                       # What write queue length does an incoming req see
system.mem_ctrls0.wrQLenPdf::15                212158                       # What write queue length does an incoming req see
system.mem_ctrls0.wrQLenPdf::16                267853                       # What write queue length does an incoming req see
system.mem_ctrls0.wrQLenPdf::17                362975                       # What write queue length does an incoming req see
system.mem_ctrls0.wrQLenPdf::18                390954                       # What write queue length does an incoming req see
system.mem_ctrls0.wrQLenPdf::19                393435                       # What write queue length does an incoming req see
system.mem_ctrls0.wrQLenPdf::20                394152                       # What write queue length does an incoming req see
system.mem_ctrls0.wrQLenPdf::21                394192                       # What write queue length does an incoming req see
system.mem_ctrls0.wrQLenPdf::22                394196                       # What write queue length does an incoming req see
system.mem_ctrls0.wrQLenPdf::23                394213                       # What write queue length does an incoming req see
system.mem_ctrls0.wrQLenPdf::24                394272                       # What write queue length does an incoming req see
system.mem_ctrls0.wrQLenPdf::25                394381                       # What write queue length does an incoming req see
system.mem_ctrls0.wrQLenPdf::26                399447                       # What write queue length does an incoming req see
system.mem_ctrls0.wrQLenPdf::27                394787                       # What write queue length does an incoming req see
system.mem_ctrls0.wrQLenPdf::28                395010                       # What write queue length does an incoming req see
system.mem_ctrls0.wrQLenPdf::29                396212                       # What write queue length does an incoming req see
system.mem_ctrls0.wrQLenPdf::30                402313                       # What write queue length does an incoming req see
system.mem_ctrls0.wrQLenPdf::31                394536                       # What write queue length does an incoming req see
system.mem_ctrls0.wrQLenPdf::32                396518                       # What write queue length does an incoming req see
system.mem_ctrls0.wrQLenPdf::33                  4169                       # What write queue length does an incoming req see
system.mem_ctrls0.wrQLenPdf::34                   463                       # What write queue length does an incoming req see
system.mem_ctrls0.wrQLenPdf::35                   186                       # What write queue length does an incoming req see
system.mem_ctrls0.wrQLenPdf::36                    45                       # What write queue length does an incoming req see
system.mem_ctrls0.wrQLenPdf::37                     7                       # What write queue length does an incoming req see
system.mem_ctrls0.wrQLenPdf::38                     0                       # What write queue length does an incoming req see
system.mem_ctrls0.wrQLenPdf::39                     0                       # What write queue length does an incoming req see
system.mem_ctrls0.wrQLenPdf::40                     0                       # What write queue length does an incoming req see
system.mem_ctrls0.wrQLenPdf::41                     0                       # What write queue length does an incoming req see
system.mem_ctrls0.wrQLenPdf::42                     0                       # What write queue length does an incoming req see
system.mem_ctrls0.wrQLenPdf::43                     0                       # What write queue length does an incoming req see
system.mem_ctrls0.wrQLenPdf::44                     0                       # What write queue length does an incoming req see
system.mem_ctrls0.wrQLenPdf::45                     0                       # What write queue length does an incoming req see
system.mem_ctrls0.wrQLenPdf::46                     0                       # What write queue length does an incoming req see
system.mem_ctrls0.wrQLenPdf::47                     0                       # What write queue length does an incoming req see
system.mem_ctrls0.wrQLenPdf::48                     0                       # What write queue length does an incoming req see
system.mem_ctrls0.wrQLenPdf::49                     0                       # What write queue length does an incoming req see
system.mem_ctrls0.wrQLenPdf::50                     0                       # What write queue length does an incoming req see
system.mem_ctrls0.wrQLenPdf::51                     0                       # What write queue length does an incoming req see
system.mem_ctrls0.wrQLenPdf::52                     0                       # What write queue length does an incoming req see
system.mem_ctrls0.wrQLenPdf::53                     0                       # What write queue length does an incoming req see
system.mem_ctrls0.wrQLenPdf::54                     0                       # What write queue length does an incoming req see
system.mem_ctrls0.wrQLenPdf::55                     0                       # What write queue length does an incoming req see
system.mem_ctrls0.wrQLenPdf::56                     0                       # What write queue length does an incoming req see
system.mem_ctrls0.wrQLenPdf::57                     0                       # What write queue length does an incoming req see
system.mem_ctrls0.wrQLenPdf::58                     0                       # What write queue length does an incoming req see
system.mem_ctrls0.wrQLenPdf::59                     0                       # What write queue length does an incoming req see
system.mem_ctrls0.wrQLenPdf::60                     0                       # What write queue length does an incoming req see
system.mem_ctrls0.wrQLenPdf::61                     0                       # What write queue length does an incoming req see
system.mem_ctrls0.wrQLenPdf::62                     0                       # What write queue length does an incoming req see
system.mem_ctrls0.wrQLenPdf::63                     0                       # What write queue length does an incoming req see
system.mem_ctrls0.bytesPerActivate::samples      2155303                       # Bytes accessed per row activation
system.mem_ctrls0.bytesPerActivate::mean   721.558092                       # Bytes accessed per row activation
system.mem_ctrls0.bytesPerActivate::gmean   577.882938                       # Bytes accessed per row activation
system.mem_ctrls0.bytesPerActivate::stdev   341.864419                       # Bytes accessed per row activation
system.mem_ctrls0.bytesPerActivate::0-127        96194      4.46%      4.46% # Bytes accessed per row activation
system.mem_ctrls0.bytesPerActivate::128-255       246780     11.45%     15.91% # Bytes accessed per row activation
system.mem_ctrls0.bytesPerActivate::256-383       119856      5.56%     21.47% # Bytes accessed per row activation
system.mem_ctrls0.bytesPerActivate::384-511        97303      4.51%     25.99% # Bytes accessed per row activation
system.mem_ctrls0.bytesPerActivate::512-639        97150      4.51%     30.50% # Bytes accessed per row activation
system.mem_ctrls0.bytesPerActivate::640-767       128580      5.97%     36.46% # Bytes accessed per row activation
system.mem_ctrls0.bytesPerActivate::768-895       358244     16.62%     53.08% # Bytes accessed per row activation
system.mem_ctrls0.bytesPerActivate::896-1023        78818      3.66%     56.74% # Bytes accessed per row activation
system.mem_ctrls0.bytesPerActivate::1024-1151       932378     43.26%    100.00% # Bytes accessed per row activation
system.mem_ctrls0.bytesPerActivate::total      2155303                       # Bytes accessed per row activation
system.mem_ctrls0.rdPerTurnAround::samples       393065                       # Reads before turning the bus around for writes
system.mem_ctrls0.rdPerTurnAround::mean     44.580418                       # Reads before turning the bus around for writes
system.mem_ctrls0.rdPerTurnAround::stdev   659.932682                       # Reads before turning the bus around for writes
system.mem_ctrls0.rdPerTurnAround::0-8191       393053    100.00%    100.00% # Reads before turning the bus around for writes
system.mem_ctrls0.rdPerTurnAround::8192-16383            7      0.00%    100.00% # Reads before turning the bus around for writes
system.mem_ctrls0.rdPerTurnAround::32768-40959            1      0.00%    100.00% # Reads before turning the bus around for writes
system.mem_ctrls0.rdPerTurnAround::196608-204799            2      0.00%    100.00% # Reads before turning the bus around for writes
system.mem_ctrls0.rdPerTurnAround::204800-212991            2      0.00%    100.00% # Reads before turning the bus around for writes
system.mem_ctrls0.rdPerTurnAround::total       393065                       # Reads before turning the bus around for writes
system.mem_ctrls0.wrPerTurnAround::samples       393065                       # Writes before turning the bus around for reads
system.mem_ctrls0.wrPerTurnAround::mean     17.240085                       # Writes before turning the bus around for reads
system.mem_ctrls0.wrPerTurnAround::gmean    17.210252                       # Writes before turning the bus around for reads
system.mem_ctrls0.wrPerTurnAround::stdev     1.009214                       # Writes before turning the bus around for reads
system.mem_ctrls0.wrPerTurnAround::1                1      0.00%      0.00% # Writes before turning the bus around for reads
system.mem_ctrls0.wrPerTurnAround::16          141821     36.08%     36.08% # Writes before turning the bus around for reads
system.mem_ctrls0.wrPerTurnAround::17           37046      9.42%     45.51% # Writes before turning the bus around for reads
system.mem_ctrls0.wrPerTurnAround::18          192446     48.96%     94.47% # Writes before turning the bus around for reads
system.mem_ctrls0.wrPerTurnAround::19           21557      5.48%     99.95% # Writes before turning the bus around for reads
system.mem_ctrls0.wrPerTurnAround::20             140      0.04%     99.99% # Writes before turning the bus around for reads
system.mem_ctrls0.wrPerTurnAround::21              50      0.01%    100.00% # Writes before turning the bus around for reads
system.mem_ctrls0.wrPerTurnAround::22               2      0.00%    100.00% # Writes before turning the bus around for reads
system.mem_ctrls0.wrPerTurnAround::23               1      0.00%    100.00% # Writes before turning the bus around for reads
system.mem_ctrls0.wrPerTurnAround::27               1      0.00%    100.00% # Writes before turning the bus around for reads
system.mem_ctrls0.wrPerTurnAround::total       393065                       # Writes before turning the bus around for reads
system.mem_ctrls0.totQLat                239290696185                       # Total ticks spent queuing
system.mem_ctrls0.totMemAccLat           567850002435                       # Total ticks spent from burst creation until serviced by the DRAM
system.mem_ctrls0.totBusLat               87615815000                       # Total ticks spent in databus transfers
system.mem_ctrls0.avgQLat                    13655.68                       # Average queueing delay per DRAM burst
system.mem_ctrls0.avgBusLat                   5000.00                       # Average bus latency per DRAM burst
system.mem_ctrls0.avgMemAccLat               32405.68                       # Average memory access latency per DRAM burst
system.mem_ctrls0.avgRdBW                      260.87                       # Average DRAM read bandwidth in MiByte/s
system.mem_ctrls0.avgWrBW                      100.88                       # Average achieved write bandwidth in MiByte/s
system.mem_ctrls0.avgRdBWSys                   260.87                       # Average system read bandwidth in MiByte/s
system.mem_ctrls0.avgWrBWSys                   100.88                       # Average system write bandwidth in MiByte/s
system.mem_ctrls0.peakBW                     12800.00                       # Theoretical peak bandwidth in MiByte/s
system.mem_ctrls0.busUtil                        2.83                       # Data bus utilization in percentage
system.mem_ctrls0.busUtilRead                    2.04                       # Data bus utilization in percentage for reads
system.mem_ctrls0.busUtilWrite                   0.79                       # Data bus utilization in percentage for writes
system.mem_ctrls0.avgRdQLen                      1.04                       # Average read queue length when enqueuing
system.mem_ctrls0.avgWrQLen                     24.69                       # Average write queue length when enqueuing
system.mem_ctrls0.readRowHits                16085245                       # Number of row buffer hits during reads
system.mem_ctrls0.writeRowHits                6059088                       # Number of row buffer hits during writes
system.mem_ctrls0.readRowHitRate                91.79                       # Row buffer hit rate for reads
system.mem_ctrls0.writeRowHitRate               89.41                       # Row buffer hit rate for writes
system.mem_ctrls0.avgGap                    176915.61                       # Average gap between requests
system.mem_ctrls0.pageHitRate                   91.13                       # Row buffer hit rate, read and write combined
system.mem_ctrls0_0.actEnergy              8271882780                       # Energy for activate commands per rank (pJ)
system.mem_ctrls0_0.preEnergy              4396606170                       # Energy for precharge commands per rank (pJ)
system.mem_ctrls0_0.readEnergy            62557467000                       # Energy for read commands per rank (pJ)
system.mem_ctrls0_0.writeEnergy           21608143020                       # Energy for write commands per rank (pJ)
system.mem_ctrls0_0.refreshEnergy        279101877600.000061                       # Energy for refresh commands per rank (pJ)
system.mem_ctrls0_0.actBackEnergy        375564085200                       # Energy for active background per rank (pJ)
system.mem_ctrls0_0.preBackEnergy         13257030720                       # Energy for precharge background per rank (pJ)
system.mem_ctrls0_0.actPowerDownEnergy   796565379540                       # Energy for active power-down per rank (pJ)
system.mem_ctrls0_0.prePowerDownEnergy   240796210560                       # Energy for precharge power-down per rank (pJ)
system.mem_ctrls0_0.selfRefreshEnergy    279225408045                       # Energy for self refresh per rank (pJ)
system.mem_ctrls0_0.totalEnergy          2081546416785                       # Total energy per rank (pJ)
system.mem_ctrls0_0.averagePower           484.192516                       # Core power per rank (mW)
system.mem_ctrls0_0.totalIdleTime        3440430849793                       # Total Idle time Per DRAM Rank
system.mem_ctrls0_0.memoryStateTime::IDLE  16562169221                       # Time in different power states
system.mem_ctrls0_0.memoryStateTime::REF 118336682000                       # Time in different power states
system.mem_ctrls0_0.memoryStateTime::SREF 1066501036809                       # Time in different power states
system.mem_ctrls0_0.memoryStateTime::PRE_PDN 627071996162                       # Time in different power states
system.mem_ctrls0_0.memoryStateTime::ACT 723675532879                       # Time in different power states
system.mem_ctrls0_0.memoryStateTime::ACT_PDN 1746857879324                       # Time in different power states
system.mem_ctrls0_1.actEnergy              7116987780                       # Energy for activate commands per rank (pJ)
system.mem_ctrls0_1.preEnergy              3782768715                       # Energy for precharge commands per rank (pJ)
system.mem_ctrls0_1.readEnergy            62557916820                       # Energy for read commands per rank (pJ)
system.mem_ctrls0_1.writeEnergy           13765051260                       # Energy for write commands per rank (pJ)
system.mem_ctrls0_1.refreshEnergy        253728923760.000061                       # Energy for refresh commands per rank (pJ)
system.mem_ctrls0_1.actBackEnergy        305994711960                       # Energy for active background per rank (pJ)
system.mem_ctrls0_1.preBackEnergy         12056327040                       # Energy for precharge background per rank (pJ)
system.mem_ctrls0_1.actPowerDownEnergy   800598843750                       # Energy for active power-down per rank (pJ)
system.mem_ctrls0_1.prePowerDownEnergy   188687662560                       # Energy for precharge power-down per rank (pJ)
system.mem_ctrls0_1.selfRefreshEnergy    344062367070                       # Energy for self refresh per rank (pJ)
system.mem_ctrls0_1.totalEnergy          1992468982875                       # Total energy per rank (pJ)
system.mem_ctrls0_1.averagePower           463.472079                       # Core power per rank (mW)
system.mem_ctrls0_1.totalIdleTime        3596302376895                       # Total Idle time Per DRAM Rank
system.mem_ctrls0_1.memoryStateTime::IDLE  15114552267                       # Time in different power states
system.mem_ctrls0_1.memoryStateTime::REF 107563170000                       # Time in different power states
system.mem_ctrls0_1.memoryStateTime::SREF 1349233792874                       # Time in different power states
system.mem_ctrls0_1.memoryStateTime::PRE_PDN 491374747070                       # Time in different power states
system.mem_ctrls0_1.memoryStateTime::ACT 580020675915                       # Time in different power states
system.mem_ctrls0_1.memoryStateTime::ACT_PDN 1755698358269                       # Time in different power states
system.mem_ctrls1.pwrStateResidencyTicks::UNDEFINED 403987900198842                       # Cumulative time (in ticks) in various power states
system.mem_ctrls1.bytes_read::switch_cpus.inst         1280                       # Number of bytes read from this memory
system.mem_ctrls1.bytes_read::switch_cpus.data    935268352                       # Number of bytes read from this memory
system.mem_ctrls1.bytes_read::switch_cpus_1.inst          192                       # Number of bytes read from this memory
system.mem_ctrls1.bytes_read::switch_cpus_1.data    186216384                       # Number of bytes read from this memory
system.mem_ctrls1.bytes_read::total        1121486208                       # Number of bytes read from this memory
system.mem_ctrls1.bytes_inst_read::switch_cpus.inst         1280                       # Number of instructions bytes read from this memory
system.mem_ctrls1.bytes_inst_read::switch_cpus_1.inst          192                       # Number of instructions bytes read from this memory
system.mem_ctrls1.bytes_inst_read::total         1472                       # Number of instructions bytes read from this memory
system.mem_ctrls1.bytes_written::writebacks    433698944                       # Number of bytes written to this memory
system.mem_ctrls1.bytes_written::total      433698944                       # Number of bytes written to this memory
system.mem_ctrls1.num_reads::switch_cpus.inst           20                       # Number of read requests responded to by this memory
system.mem_ctrls1.num_reads::switch_cpus.data     14613568                       # Number of read requests responded to by this memory
system.mem_ctrls1.num_reads::switch_cpus_1.inst            3                       # Number of read requests responded to by this memory
system.mem_ctrls1.num_reads::switch_cpus_1.data      2909631                       # Number of read requests responded to by this memory
system.mem_ctrls1.num_reads::total           17523222                       # Number of read requests responded to by this memory
system.mem_ctrls1.num_writes::writebacks      6776546                       # Number of write requests responded to by this memory
system.mem_ctrls1.num_writes::total           6776546                       # Number of write requests responded to by this memory
system.mem_ctrls1.bw_read::switch_cpus.inst          298                       # Total read bandwidth from this memory (bytes/s)
system.mem_ctrls1.bw_read::switch_cpus.data    217554594                       # Total read bandwidth from this memory (bytes/s)
system.mem_ctrls1.bw_read::switch_cpus_1.inst           45                       # Total read bandwidth from this memory (bytes/s)
system.mem_ctrls1.bw_read::switch_cpus_1.data     43316156                       # Total read bandwidth from this memory (bytes/s)
system.mem_ctrls1.bw_read::total            260871092                       # Total read bandwidth from this memory (bytes/s)
system.mem_ctrls1.bw_inst_read::switch_cpus.inst          298                       # Instruction read bandwidth from this memory (bytes/s)
system.mem_ctrls1.bw_inst_read::switch_cpus_1.inst           45                       # Instruction read bandwidth from this memory (bytes/s)
system.mem_ctrls1.bw_inst_read::total             342                       # Instruction read bandwidth from this memory (bytes/s)
system.mem_ctrls1.bw_write::writebacks      100883557                       # Write bandwidth from this memory (bytes/s)
system.mem_ctrls1.bw_write::total           100883557                       # Write bandwidth from this memory (bytes/s)
system.mem_ctrls1.bw_total::writebacks      100883557                       # Total bandwidth to/from this memory (bytes/s)
system.mem_ctrls1.bw_total::switch_cpus.inst          298                       # Total bandwidth to/from this memory (bytes/s)
system.mem_ctrls1.bw_total::switch_cpus.data    217554594                       # Total bandwidth to/from this memory (bytes/s)
system.mem_ctrls1.bw_total::switch_cpus_1.inst           45                       # Total bandwidth to/from this memory (bytes/s)
system.mem_ctrls1.bw_total::switch_cpus_1.data     43316156                       # Total bandwidth to/from this memory (bytes/s)
system.mem_ctrls1.bw_total::total           361754649                       # Total bandwidth to/from this memory (bytes/s)
system.mem_ctrls1.readReqs                   17523222                       # Number of read requests accepted
system.mem_ctrls1.writeReqs                   6776546                       # Number of write requests accepted
system.mem_ctrls1.readBursts                 17523222                       # Number of DRAM read bursts, including those serviced by the write queue
system.mem_ctrls1.writeBursts                 6776546                       # Number of DRAM write bursts, including those merged in the write queue
system.mem_ctrls1.bytesReadDRAM            1121479872                       # Total number of bytes read from DRAM
system.mem_ctrls1.bytesReadWrQ                   6336                       # Total number of bytes read from write queue
system.mem_ctrls1.bytesWritten              433697280                       # Total number of bytes written to DRAM
system.mem_ctrls1.bytesReadSys             1121486208                       # Total read bytes from the system interface side
system.mem_ctrls1.bytesWrittenSys           433698944                       # Total written bytes from the system interface side
system.mem_ctrls1.servicedByWrQ                    99                       # Number of DRAM read bursts serviced by the write queue
system.mem_ctrls1.mergedWrBursts                    1                       # Number of DRAM write bursts merged with an existing one
system.mem_ctrls1.neitherReadNorWriteReqs            0                       # Number of requests that are neither read nor write
system.mem_ctrls1.perBankRdBursts::0          1095177                       # Per bank write bursts
system.mem_ctrls1.perBankRdBursts::1          1095156                       # Per bank write bursts
system.mem_ctrls1.perBankRdBursts::2          1095257                       # Per bank write bursts
system.mem_ctrls1.perBankRdBursts::3          1095290                       # Per bank write bursts
system.mem_ctrls1.perBankRdBursts::4          1095168                       # Per bank write bursts
system.mem_ctrls1.perBankRdBursts::5          1095168                       # Per bank write bursts
system.mem_ctrls1.perBankRdBursts::6          1095167                       # Per bank write bursts
system.mem_ctrls1.perBankRdBursts::7          1095164                       # Per bank write bursts
system.mem_ctrls1.perBankRdBursts::8          1095152                       # Per bank write bursts
system.mem_ctrls1.perBankRdBursts::9          1099446                       # Per bank write bursts
system.mem_ctrls1.perBankRdBursts::10         1090861                       # Per bank write bursts
system.mem_ctrls1.perBankRdBursts::11         1095168                       # Per bank write bursts
system.mem_ctrls1.perBankRdBursts::12         1095168                       # Per bank write bursts
system.mem_ctrls1.perBankRdBursts::13         1095168                       # Per bank write bursts
system.mem_ctrls1.perBankRdBursts::14         1095445                       # Per bank write bursts
system.mem_ctrls1.perBankRdBursts::15         1095168                       # Per bank write bursts
system.mem_ctrls1.perBankWrBursts::0           229376                       # Per bank write bursts
system.mem_ctrls1.perBankWrBursts::1           302336                       # Per bank write bursts
system.mem_ctrls1.perBankWrBursts::2           520157                       # Per bank write bursts
system.mem_ctrls1.perBankWrBursts::3           617778                       # Per bank write bursts
system.mem_ctrls1.perBankWrBursts::4           618093                       # Per bank write bursts
system.mem_ctrls1.perBankWrBursts::5           616650                       # Per bank write bursts
system.mem_ctrls1.perBankWrBursts::6           616776                       # Per bank write bursts
system.mem_ctrls1.perBankWrBursts::7           618333                       # Per bank write bursts
system.mem_ctrls1.perBankWrBursts::8           617670                       # Per bank write bursts
system.mem_ctrls1.perBankWrBursts::9           545200                       # Per bank write bursts
system.mem_ctrls1.perBankWrBursts::10          327070                       # Per bank write bursts
system.mem_ctrls1.perBankWrBursts::11          229376                       # Per bank write bursts
system.mem_ctrls1.perBankWrBursts::12          229376                       # Per bank write bursts
system.mem_ctrls1.perBankWrBursts::13          229376                       # Per bank write bursts
system.mem_ctrls1.perBankWrBursts::14          229577                       # Per bank write bursts
system.mem_ctrls1.perBankWrBursts::15          229376                       # Per bank write bursts
system.mem_ctrls1.numRdRetry                        0                       # Number of times read queue was full causing retry
system.mem_ctrls1.numWrRetry                        0                       # Number of times write queue was full causing retry
system.mem_ctrls1.totGap                 4298997127239                       # Total gap between requests
system.mem_ctrls1.readPktSize::0                    0                       # Read request sizes (log2)
system.mem_ctrls1.readPktSize::1                    0                       # Read request sizes (log2)
system.mem_ctrls1.readPktSize::2                    0                       # Read request sizes (log2)
system.mem_ctrls1.readPktSize::3                    0                       # Read request sizes (log2)
system.mem_ctrls1.readPktSize::4                    0                       # Read request sizes (log2)
system.mem_ctrls1.readPktSize::5                    0                       # Read request sizes (log2)
system.mem_ctrls1.readPktSize::6             17523222                       # Read request sizes (log2)
system.mem_ctrls1.writePktSize::0                   0                       # Write request sizes (log2)
system.mem_ctrls1.writePktSize::1                   0                       # Write request sizes (log2)
system.mem_ctrls1.writePktSize::2                   0                       # Write request sizes (log2)
system.mem_ctrls1.writePktSize::3                   0                       # Write request sizes (log2)
system.mem_ctrls1.writePktSize::4                   0                       # Write request sizes (log2)
system.mem_ctrls1.writePktSize::5                   0                       # Write request sizes (log2)
system.mem_ctrls1.writePktSize::6             6776546                       # Write request sizes (log2)
system.mem_ctrls1.rdQLenPdf::0               16285128                       # What read queue length does an incoming req see
system.mem_ctrls1.rdQLenPdf::1                1196103                       # What read queue length does an incoming req see
system.mem_ctrls1.rdQLenPdf::2                  30412                       # What read queue length does an incoming req see
system.mem_ctrls1.rdQLenPdf::3                  11480                       # What read queue length does an incoming req see
system.mem_ctrls1.rdQLenPdf::4                      0                       # What read queue length does an incoming req see
system.mem_ctrls1.rdQLenPdf::5                      0                       # What read queue length does an incoming req see
system.mem_ctrls1.rdQLenPdf::6                      0                       # What read queue length does an incoming req see
system.mem_ctrls1.rdQLenPdf::7                      0                       # What read queue length does an incoming req see
system.mem_ctrls1.rdQLenPdf::8                      0                       # What read queue length does an incoming req see
system.mem_ctrls1.rdQLenPdf::9                      0                       # What read queue length does an incoming req see
system.mem_ctrls1.rdQLenPdf::10                     0                       # What read queue length does an incoming req see
system.mem_ctrls1.rdQLenPdf::11                     0                       # What read queue length does an incoming req see
system.mem_ctrls1.rdQLenPdf::12                     0                       # What read queue length does an incoming req see
system.mem_ctrls1.rdQLenPdf::13                     0                       # What read queue length does an incoming req see
system.mem_ctrls1.rdQLenPdf::14                     0                       # What read queue length does an incoming req see
system.mem_ctrls1.rdQLenPdf::15                     0                       # What read queue length does an incoming req see
system.mem_ctrls1.rdQLenPdf::16                     0                       # What read queue length does an incoming req see
system.mem_ctrls1.rdQLenPdf::17                     0                       # What read queue length does an incoming req see
system.mem_ctrls1.rdQLenPdf::18                     0                       # What read queue length does an incoming req see
system.mem_ctrls1.rdQLenPdf::19                     0                       # What read queue length does an incoming req see
system.mem_ctrls1.rdQLenPdf::20                     0                       # What read queue length does an incoming req see
system.mem_ctrls1.rdQLenPdf::21                     0                       # What read queue length does an incoming req see
system.mem_ctrls1.rdQLenPdf::22                     0                       # What read queue length does an incoming req see
system.mem_ctrls1.rdQLenPdf::23                     0                       # What read queue length does an incoming req see
system.mem_ctrls1.rdQLenPdf::24                     0                       # What read queue length does an incoming req see
system.mem_ctrls1.rdQLenPdf::25                     0                       # What read queue length does an incoming req see
system.mem_ctrls1.rdQLenPdf::26                     0                       # What read queue length does an incoming req see
system.mem_ctrls1.rdQLenPdf::27                     0                       # What read queue length does an incoming req see
system.mem_ctrls1.rdQLenPdf::28                     0                       # What read queue length does an incoming req see
system.mem_ctrls1.rdQLenPdf::29                     0                       # What read queue length does an incoming req see
system.mem_ctrls1.rdQLenPdf::30                     0                       # What read queue length does an incoming req see
system.mem_ctrls1.rdQLenPdf::31                     0                       # What read queue length does an incoming req see
system.mem_ctrls1.wrQLenPdf::0                      2                       # What write queue length does an incoming req see
system.mem_ctrls1.wrQLenPdf::1                      2                       # What write queue length does an incoming req see
system.mem_ctrls1.wrQLenPdf::2                      2                       # What write queue length does an incoming req see
system.mem_ctrls1.wrQLenPdf::3                      2                       # What write queue length does an incoming req see
system.mem_ctrls1.wrQLenPdf::4                      2                       # What write queue length does an incoming req see
system.mem_ctrls1.wrQLenPdf::5                      2                       # What write queue length does an incoming req see
system.mem_ctrls1.wrQLenPdf::6                      2                       # What write queue length does an incoming req see
system.mem_ctrls1.wrQLenPdf::7                      2                       # What write queue length does an incoming req see
system.mem_ctrls1.wrQLenPdf::8                      2                       # What write queue length does an incoming req see
system.mem_ctrls1.wrQLenPdf::9                      2                       # What write queue length does an incoming req see
system.mem_ctrls1.wrQLenPdf::10                     2                       # What write queue length does an incoming req see
system.mem_ctrls1.wrQLenPdf::11                     2                       # What write queue length does an incoming req see
system.mem_ctrls1.wrQLenPdf::12                     2                       # What write queue length does an incoming req see
system.mem_ctrls1.wrQLenPdf::13                     2                       # What write queue length does an incoming req see
system.mem_ctrls1.wrQLenPdf::14                     2                       # What write queue length does an incoming req see
system.mem_ctrls1.wrQLenPdf::15                211917                       # What write queue length does an incoming req see
system.mem_ctrls1.wrQLenPdf::16                267364                       # What write queue length does an incoming req see
system.mem_ctrls1.wrQLenPdf::17                363214                       # What write queue length does an incoming req see
system.mem_ctrls1.wrQLenPdf::18                391218                       # What write queue length does an incoming req see
system.mem_ctrls1.wrQLenPdf::19                393610                       # What write queue length does an incoming req see
system.mem_ctrls1.wrQLenPdf::20                394230                       # What write queue length does an incoming req see
system.mem_ctrls1.wrQLenPdf::21                394236                       # What write queue length does an incoming req see
system.mem_ctrls1.wrQLenPdf::22                394245                       # What write queue length does an incoming req see
system.mem_ctrls1.wrQLenPdf::23                394210                       # What write queue length does an incoming req see
system.mem_ctrls1.wrQLenPdf::24                394262                       # What write queue length does an incoming req see
system.mem_ctrls1.wrQLenPdf::25                394458                       # What write queue length does an incoming req see
system.mem_ctrls1.wrQLenPdf::26                399575                       # What write queue length does an incoming req see
system.mem_ctrls1.wrQLenPdf::27                394854                       # What write queue length does an incoming req see
system.mem_ctrls1.wrQLenPdf::28                394959                       # What write queue length does an incoming req see
system.mem_ctrls1.wrQLenPdf::29                396194                       # What write queue length does an incoming req see
system.mem_ctrls1.wrQLenPdf::30                401821                       # What write queue length does an incoming req see
system.mem_ctrls1.wrQLenPdf::31                394670                       # What write queue length does an incoming req see
system.mem_ctrls1.wrQLenPdf::32                396514                       # What write queue length does an incoming req see
system.mem_ctrls1.wrQLenPdf::33                  4181                       # What write queue length does an incoming req see
system.mem_ctrls1.wrQLenPdf::34                   474                       # What write queue length does an incoming req see
system.mem_ctrls1.wrQLenPdf::35                   207                       # What write queue length does an incoming req see
system.mem_ctrls1.wrQLenPdf::36                    72                       # What write queue length does an incoming req see
system.mem_ctrls1.wrQLenPdf::37                    24                       # What write queue length does an incoming req see
system.mem_ctrls1.wrQLenPdf::38                     4                       # What write queue length does an incoming req see
system.mem_ctrls1.wrQLenPdf::39                     1                       # What write queue length does an incoming req see
system.mem_ctrls1.wrQLenPdf::40                     1                       # What write queue length does an incoming req see
system.mem_ctrls1.wrQLenPdf::41                     0                       # What write queue length does an incoming req see
system.mem_ctrls1.wrQLenPdf::42                     0                       # What write queue length does an incoming req see
system.mem_ctrls1.wrQLenPdf::43                     0                       # What write queue length does an incoming req see
system.mem_ctrls1.wrQLenPdf::44                     0                       # What write queue length does an incoming req see
system.mem_ctrls1.wrQLenPdf::45                     0                       # What write queue length does an incoming req see
system.mem_ctrls1.wrQLenPdf::46                     0                       # What write queue length does an incoming req see
system.mem_ctrls1.wrQLenPdf::47                     0                       # What write queue length does an incoming req see
system.mem_ctrls1.wrQLenPdf::48                     0                       # What write queue length does an incoming req see
system.mem_ctrls1.wrQLenPdf::49                     0                       # What write queue length does an incoming req see
system.mem_ctrls1.wrQLenPdf::50                     0                       # What write queue length does an incoming req see
system.mem_ctrls1.wrQLenPdf::51                     0                       # What write queue length does an incoming req see
system.mem_ctrls1.wrQLenPdf::52                     0                       # What write queue length does an incoming req see
system.mem_ctrls1.wrQLenPdf::53                     0                       # What write queue length does an incoming req see
system.mem_ctrls1.wrQLenPdf::54                     0                       # What write queue length does an incoming req see
system.mem_ctrls1.wrQLenPdf::55                     0                       # What write queue length does an incoming req see
system.mem_ctrls1.wrQLenPdf::56                     0                       # What write queue length does an incoming req see
system.mem_ctrls1.wrQLenPdf::57                     0                       # What write queue length does an incoming req see
system.mem_ctrls1.wrQLenPdf::58                     0                       # What write queue length does an incoming req see
system.mem_ctrls1.wrQLenPdf::59                     0                       # What write queue length does an incoming req see
system.mem_ctrls1.wrQLenPdf::60                     0                       # What write queue length does an incoming req see
system.mem_ctrls1.wrQLenPdf::61                     0                       # What write queue length does an incoming req see
system.mem_ctrls1.wrQLenPdf::62                     0                       # What write queue length does an incoming req see
system.mem_ctrls1.wrQLenPdf::63                     0                       # What write queue length does an incoming req see
system.mem_ctrls1.bytesPerActivate::samples      2155161                       # Bytes accessed per row activation
system.mem_ctrls1.bytesPerActivate::mean   721.606020                       # Bytes accessed per row activation
system.mem_ctrls1.bytesPerActivate::gmean   577.996018                       # Bytes accessed per row activation
system.mem_ctrls1.bytesPerActivate::stdev   341.764354                       # Bytes accessed per row activation
system.mem_ctrls1.bytesPerActivate::0-127        96107      4.46%      4.46% # Bytes accessed per row activation
system.mem_ctrls1.bytesPerActivate::128-255       246279     11.43%     15.89% # Bytes accessed per row activation
system.mem_ctrls1.bytesPerActivate::256-383       119685      5.55%     21.44% # Bytes accessed per row activation
system.mem_ctrls1.bytesPerActivate::384-511        97894      4.54%     25.98% # Bytes accessed per row activation
system.mem_ctrls1.bytesPerActivate::512-639        96824      4.49%     30.48% # Bytes accessed per row activation
system.mem_ctrls1.bytesPerActivate::640-767       129170      5.99%     36.47% # Bytes accessed per row activation
system.mem_ctrls1.bytesPerActivate::768-895       358471     16.63%     53.10% # Bytes accessed per row activation
system.mem_ctrls1.bytesPerActivate::896-1023        78277      3.63%     56.73% # Bytes accessed per row activation
system.mem_ctrls1.bytesPerActivate::1024-1151       932454     43.27%    100.00% # Bytes accessed per row activation
system.mem_ctrls1.bytesPerActivate::total      2155161                       # Bytes accessed per row activation
system.mem_ctrls1.rdPerTurnAround::samples       393110                       # Reads before turning the bus around for writes
system.mem_ctrls1.rdPerTurnAround::mean     44.575261                       # Reads before turning the bus around for writes
system.mem_ctrls1.rdPerTurnAround::gmean    25.230876                       # Reads before turning the bus around for writes
system.mem_ctrls1.rdPerTurnAround::stdev   659.460083                       # Reads before turning the bus around for writes
system.mem_ctrls1.rdPerTurnAround::0-8191       393100    100.00%    100.00% # Reads before turning the bus around for writes
system.mem_ctrls1.rdPerTurnAround::8192-16383            5      0.00%    100.00% # Reads before turning the bus around for writes
system.mem_ctrls1.rdPerTurnAround::32768-40959            1      0.00%    100.00% # Reads before turning the bus around for writes
system.mem_ctrls1.rdPerTurnAround::196608-204799            2      0.00%    100.00% # Reads before turning the bus around for writes
system.mem_ctrls1.rdPerTurnAround::204800-212991            2      0.00%    100.00% # Reads before turning the bus around for writes
system.mem_ctrls1.rdPerTurnAround::total       393110                       # Reads before turning the bus around for writes
system.mem_ctrls1.wrPerTurnAround::samples       393110                       # Writes before turning the bus around for reads
system.mem_ctrls1.wrPerTurnAround::mean     17.238228                       # Writes before turning the bus around for reads
system.mem_ctrls1.wrPerTurnAround::gmean    17.208461                       # Writes before turning the bus around for reads
system.mem_ctrls1.wrPerTurnAround::stdev     1.009100                       # Writes before turning the bus around for reads
system.mem_ctrls1.wrPerTurnAround::8                1      0.00%      0.00% # Writes before turning the bus around for reads
system.mem_ctrls1.wrPerTurnAround::16          142184     36.17%     36.17% # Writes before turning the bus around for reads
system.mem_ctrls1.wrPerTurnAround::17           37010      9.41%     45.58% # Writes before turning the bus around for reads
system.mem_ctrls1.wrPerTurnAround::18          192243     48.90%     94.49% # Writes before turning the bus around for reads
system.mem_ctrls1.wrPerTurnAround::19           21471      5.46%     99.95% # Writes before turning the bus around for reads
system.mem_ctrls1.wrPerTurnAround::20             155      0.04%     99.99% # Writes before turning the bus around for reads
system.mem_ctrls1.wrPerTurnAround::21              38      0.01%    100.00% # Writes before turning the bus around for reads
system.mem_ctrls1.wrPerTurnAround::22               7      0.00%    100.00% # Writes before turning the bus around for reads
system.mem_ctrls1.wrPerTurnAround::23               1      0.00%    100.00% # Writes before turning the bus around for reads
system.mem_ctrls1.wrPerTurnAround::total       393110                       # Writes before turning the bus around for reads
system.mem_ctrls1.totQLat                239651571072                       # Total ticks spent queuing
system.mem_ctrls1.totMemAccLat           568210127322                       # Total ticks spent from burst creation until serviced by the DRAM
system.mem_ctrls1.totBusLat               87615615000                       # Total ticks spent in databus transfers
system.mem_ctrls1.avgQLat                    13676.30                       # Average queueing delay per DRAM burst
system.mem_ctrls1.avgBusLat                   5000.00                       # Average bus latency per DRAM burst
system.mem_ctrls1.avgMemAccLat               32426.30                       # Average memory access latency per DRAM burst
system.mem_ctrls1.avgRdBW                      260.87                       # Average DRAM read bandwidth in MiByte/s
system.mem_ctrls1.avgWrBW                      100.88                       # Average achieved write bandwidth in MiByte/s
system.mem_ctrls1.avgRdBWSys                   260.87                       # Average system read bandwidth in MiByte/s
system.mem_ctrls1.avgWrBWSys                   100.88                       # Average system write bandwidth in MiByte/s
system.mem_ctrls1.peakBW                     12800.00                       # Theoretical peak bandwidth in MiByte/s
system.mem_ctrls1.busUtil                        2.83                       # Data bus utilization in percentage
system.mem_ctrls1.busUtilRead                    2.04                       # Data bus utilization in percentage for reads
system.mem_ctrls1.busUtilWrite                   0.79                       # Data bus utilization in percentage for writes
system.mem_ctrls1.avgRdQLen                      1.04                       # Average read queue length when enqueuing
system.mem_ctrls1.avgWrQLen                     24.95                       # Average write queue length when enqueuing
system.mem_ctrls1.readRowHits                16085169                       # Number of row buffer hits during reads
system.mem_ctrls1.writeRowHits                6059313                       # Number of row buffer hits during writes
system.mem_ctrls1.readRowHitRate                91.79                       # Row buffer hit rate for reads
system.mem_ctrls1.writeRowHitRate               89.42                       # Row buffer hit rate for writes
system.mem_ctrls1.avgGap                    176915.15                       # Average gap between requests
system.mem_ctrls1.pageHitRate                   91.13                       # Row buffer hit rate, read and write combined
system.mem_ctrls1_0.actEnergy              8269912140                       # Energy for activate commands per rank (pJ)
system.mem_ctrls1_0.preEnergy              4395562545                       # Energy for precharge commands per rank (pJ)
system.mem_ctrls1_0.readEnergy            62557445580                       # Energy for read commands per rank (pJ)
system.mem_ctrls1_0.writeEnergy           21608184780                       # Energy for write commands per rank (pJ)
system.mem_ctrls1_0.refreshEnergy        279171946560.000061                       # Energy for refresh commands per rank (pJ)
system.mem_ctrls1_0.actBackEnergy        375930087900                       # Energy for active background per rank (pJ)
system.mem_ctrls1_0.preBackEnergy         13278644160                       # Energy for precharge background per rank (pJ)
system.mem_ctrls1_0.actPowerDownEnergy   796732249320                       # Energy for active power-down per rank (pJ)
system.mem_ctrls1_0.prePowerDownEnergy   240752456160                       # Energy for precharge power-down per rank (pJ)
system.mem_ctrls1_0.selfRefreshEnergy    278942536260                       # Energy for self refresh per rank (pJ)
system.mem_ctrls1_0.totalEnergy          2081849792805                       # Total energy per rank (pJ)
system.mem_ctrls1_0.averagePower           484.263077                       # Core power per rank (mW)
system.mem_ctrls1_0.totalIdleTime        3439552435801                       # Total Idle time Per DRAM Rank
system.mem_ctrls1_0.memoryStateTime::IDLE  16639369665                       # Time in different power states
system.mem_ctrls1_0.memoryStateTime::REF 118366544000                       # Time in different power states
system.mem_ctrls1_0.memoryStateTime::SREF 1065371319958                       # Time in different power states
system.mem_ctrls1_0.memoryStateTime::PRE_PDN 626958260026                       # Time in different power states
system.mem_ctrls1_0.memoryStateTime::ACT 724446884607                       # Time in different power states
system.mem_ctrls1_0.memoryStateTime::ACT_PDN 1747222918139                       # Time in different power states
system.mem_ctrls1_1.actEnergy              7117937400                       # Energy for activate commands per rank (pJ)
system.mem_ctrls1_1.preEnergy              3783273450                       # Energy for precharge commands per rank (pJ)
system.mem_ctrls1_1.readEnergy            62557652640                       # Energy for read commands per rank (pJ)
system.mem_ctrls1_1.writeEnergy           13765249620                       # Energy for write commands per rank (pJ)
system.mem_ctrls1_1.refreshEnergy        253783626720.000061                       # Energy for refresh commands per rank (pJ)
system.mem_ctrls1_1.actBackEnergy        305869500630                       # Energy for active background per rank (pJ)
system.mem_ctrls1_1.preBackEnergy         12013884000                       # Energy for precharge background per rank (pJ)
system.mem_ctrls1_1.actPowerDownEnergy   800481270420                       # Energy for active power-down per rank (pJ)
system.mem_ctrls1_1.prePowerDownEnergy   188756653440                       # Energy for precharge power-down per rank (pJ)
system.mem_ctrls1_1.selfRefreshEnergy    344261058270                       # Energy for self refresh per rank (pJ)
system.mem_ctrls1_1.totalEnergy          1992502614630                       # Total energy per rank (pJ)
system.mem_ctrls1_1.averagePower           463.479905                       # Core power per rank (mW)
system.mem_ctrls1_1.totalIdleTime        3596701289873                       # Total Idle time Per DRAM Rank
system.mem_ctrls1_1.memoryStateTime::IDLE  14999319215                       # Time in different power states
system.mem_ctrls1_1.memoryStateTime::REF 107588164000                       # Time in different power states
system.mem_ctrls1_1.memoryStateTime::SREF 1349708082076                       # Time in different power states
system.mem_ctrls1_1.memoryStateTime::PRE_PDN 491553677087                       # Time in different power states
system.mem_ctrls1_1.memoryStateTime::ACT 579711967926                       # Time in different power states
system.mem_ctrls1_1.memoryStateTime::ACT_PDN 1755444086091                       # Time in different power states
system.pwrStateResidencyTicks::UNDEFINED 403987900198842                       # Cumulative time (in ticks) in various power states
system.cpu.branchPred.lookups                       5                       # Number of BP lookups
system.cpu.branchPred.condPredicted                 3                       # Number of conditional branches predicted
system.cpu.branchPred.condIncorrect                 3                       # Number of conditional branches incorrect
system.cpu.branchPred.BTBLookups                    2                       # Number of BTB lookups
system.cpu.branchPred.BTBHits                       1                       # Number of BTB hits
system.cpu.branchPred.BTBCorrect                    0                       # Number of correct BTB predictions (this stat may not work properly.
system.cpu.branchPred.BTBHitPct             50.000000                       # BTB Hit Percentage
system.cpu.branchPred.usedRAS                       0                       # Number of times the RAS was used to get a target.
system.cpu.branchPred.RASInCorrect                  0                       # Number of incorrect RAS predictions.
system.cpu.branchPred.indirectLookups               0                       # Number of indirect predictor lookups.
system.cpu.branchPred.indirectHits                  0                       # Number of indirect target hits.
system.cpu.branchPred.indirectMisses                0                       # Number of indirect misses.
system.cpu.branchPredindirectMispredicted            0                       # Number of mispredicted indirect branches.
system.cpu_voltage_domain.voltage                   1                       # Voltage in Volts
system.cpu_clk_domain.clock                       333                       # Clock period in ticks
system.cpu.dtb.fetch_hits                           0                       # ITB hits
system.cpu.dtb.fetch_misses                         0                       # ITB misses
system.cpu.dtb.fetch_acv                            0                       # ITB acv
system.cpu.dtb.fetch_accesses                       0                       # ITB accesses
system.cpu.dtb.read_hits                            0                       # DTB read hits
system.cpu.dtb.read_misses                          0                       # DTB read misses
system.cpu.dtb.read_acv                             0                       # DTB read access violations
system.cpu.dtb.read_accesses                        0                       # DTB read accesses
system.cpu.dtb.write_hits                           1                       # DTB write hits
system.cpu.dtb.write_misses                         0                       # DTB write misses
system.cpu.dtb.write_acv                            0                       # DTB write access violations
system.cpu.dtb.write_accesses                       1                       # DTB write accesses
system.cpu.dtb.data_hits                            1                       # DTB hits
system.cpu.dtb.data_misses                          0                       # DTB misses
system.cpu.dtb.data_acv                             0                       # DTB access violations
system.cpu.dtb.data_accesses                        1                       # DTB accesses
system.cpu.itb.fetch_hits                           6                       # ITB hits
system.cpu.itb.fetch_misses                         0                       # ITB misses
system.cpu.itb.fetch_acv                            0                       # ITB acv
system.cpu.itb.fetch_accesses                       6                       # ITB accesses
system.cpu.itb.read_hits                            0                       # DTB read hits
system.cpu.itb.read_misses                          0                       # DTB read misses
system.cpu.itb.read_acv                             0                       # DTB read access violations
system.cpu.itb.read_accesses                        0                       # DTB read accesses
system.cpu.itb.write_hits                           0                       # DTB write hits
system.cpu.itb.write_misses                         0                       # DTB write misses
system.cpu.itb.write_acv                            0                       # DTB write access violations
system.cpu.itb.write_accesses                       0                       # DTB write accesses
system.cpu.itb.data_hits                            0                       # DTB hits
system.cpu.itb.data_misses                          0                       # DTB misses
system.cpu.itb.data_acv                             0                       # DTB access violations
system.cpu.itb.data_accesses                        0                       # DTB accesses
system.cpu.workload.num_syscalls                    0                       # Number of system calls
system.cpu.pwrStateResidencyTicks::ON    4299005296395                       # Cumulative time (in ticks) in various power states
system.cpu.numCycles                              370                       # number of cpu cycles simulated
system.cpu.numWorkItemsStarted                      0                       # number of work items this cpu started
system.cpu.numWorkItemsCompleted                    0                       # number of work items this cpu completed
system.cpu.fetch.icacheStallCycles                 23                       # Number of cycles fetch is stalled on an Icache miss
system.cpu.fetch.Insts                             17                       # Number of instructions fetch has processed
system.cpu.fetch.Branches                           5                       # Number of branches that fetch encountered
system.cpu.fetch.predictedBranches                  1                       # Number of branches that fetch has predicted taken
system.cpu.fetch.Cycles                             3                       # Number of cycles fetch has run and was not squashing or blocked
system.cpu.fetch.SquashCycles                       9                       # Number of cycles fetch has spent squashing
system.cpu.fetch.PendingDrainCycles                 3                       # Number of cycles fetch has spent waiting on pipes to drain
system.cpu.fetch.CacheLines                         6                       # Number of cache lines fetched
system.cpu.fetch.IcacheSquashes                     4                       # Number of outstanding Icache misses that were squashed
system.cpu.fetch.rateDist::samples                 33                       # Number of instructions fetched each cycle (Total)
system.cpu.fetch.rateDist::mean              0.515152                       # Number of instructions fetched each cycle (Total)
system.cpu.fetch.rateDist::stdev             1.734236                       # Number of instructions fetched each cycle (Total)
system.cpu.fetch.rateDist::underflows               0      0.00%      0.00% # Number of instructions fetched each cycle (Total)
system.cpu.fetch.rateDist::0                       30     90.91%     90.91% # Number of instructions fetched each cycle (Total)
system.cpu.fetch.rateDist::1                        0      0.00%     90.91% # Number of instructions fetched each cycle (Total)
system.cpu.fetch.rateDist::2                        0      0.00%     90.91% # Number of instructions fetched each cycle (Total)
system.cpu.fetch.rateDist::3                        0      0.00%     90.91% # Number of instructions fetched each cycle (Total)
system.cpu.fetch.rateDist::4                        1      3.03%     93.94% # Number of instructions fetched each cycle (Total)
system.cpu.fetch.rateDist::5                        1      3.03%     96.97% # Number of instructions fetched each cycle (Total)
system.cpu.fetch.rateDist::6                        0      0.00%     96.97% # Number of instructions fetched each cycle (Total)
system.cpu.fetch.rateDist::7                        0      0.00%     96.97% # Number of instructions fetched each cycle (Total)
system.cpu.fetch.rateDist::8                        1      3.03%    100.00% # Number of instructions fetched each cycle (Total)
[...]
system.switch_cpus_1.iq.rate                 0.447760                       # Inst issue rate
system.switch_cpus_1.iq.fu_busy_cnt           2220193                       # FU busy when requested
system.switch_cpus_1.iq.fu_busy_rate         0.008753                       # FU busy rate (busy events/executed inst)
system.switch_cpus_1.iq.int_inst_queue_reads   1076049265                       # Number of integer instruction queue reads
system.switch_cpus_1.iq.int_inst_queue_writes    337656040                       # Number of integer instruction queue writes
system.switch_cpus_1.iq.int_inst_queue_wakeup_accesses    236828151                       # Number of integer instruction queue wakeup accesses
system.switch_cpus_1.iq.fp_inst_queue_reads         3825                       # Number of floating instruction queue reads
system.switch_cpus_1.iq.fp_inst_queue_writes       200417                       # Number of floating instruction queue writes
system.switch_cpus_1.iq.fp_inst_queue_wakeup_accesses          622                       # Number of floating instruction queue wakeup accesses
system.switch_cpus_1.iq.int_alu_accesses    255879027                       # Number of integer alu accesses
system.switch_cpus_1.iq.fp_alu_accesses          1935                       # Number of floating point alu accesses
system.switch_cpus_1.iew.lsq.thread0.forwLoads          267                       # Number of loads that had data forwarded from stores
system.switch_cpus_1.iew.lsq.thread0.invAddrLoads            0                       # Number of loads ignored due to an invalid address
system.switch_cpus_1.iew.lsq.thread0.squashedLoads      7744755                       # Number of loads squashed
system.switch_cpus_1.iew.lsq.thread0.ignoredResponses            1                       # Number of memory responses ignored because the instruction is squashed
system.switch_cpus_1.iew.lsq.thread0.memOrderViolation           28                       # Number of memory ordering violations
system.switch_cpus_1.iew.lsq.thread0.squashedStores      1151762                       # Number of stores squashed
system.switch_cpus_1.iew.lsq.thread0.invAddrSwpfs            0                       # Number of software prefetches ignored due to an invalid address
system.switch_cpus_1.iew.lsq.thread0.blockedLoads            0                       # Number of blocked loads due to partial load-store forwarding
system.switch_cpus_1.iew.lsq.thread0.rescheduledLoads            0                       # Number of loads that were rescheduled
system.switch_cpus_1.iew.lsq.thread0.cacheBlocked     10561147                       # Number of times an access to memory failed due to the cache being blocked
system.switch_cpus_1.iew.iewIdleCycles              0                       # Number of cycles IEW is idle
system.switch_cpus_1.iew.iewSquashCycles       986218                       # Number of cycles IEW is squashing
system.switch_cpus_1.iew.iewBlockCycles     405856715                       # Number of cycles IEW is blocking
system.switch_cpus_1.iew.iewUnblockCycles      3604626                       # Number of cycles IEW is unblocking
system.switch_cpus_1.iew.iewDispatchedInsts    268979327                       # Number of instructions dispatched to IQ
system.switch_cpus_1.iew.iewDispSquashedInsts         1896                       # Number of squashed instructions skipped by dispatch
system.switch_cpus_1.iew.iewDispLoadInsts     31021783                       # Number of dispatched load instructions
system.switch_cpus_1.iew.iewDispStoreInsts      7259988                       # Number of dispatched store instructions
system.switch_cpus_1.iew.iewDispNonSpecInsts            0                       # Number of dispatched non-speculative instructions
system.switch_cpus_1.iew.iewIQFullEvents      1588146                       # Number of times the IQ has become full, causing a stall
system.switch_cpus_1.iew.iewLSQFullEvents       140767                       # Number of times the LSQ has become full, causing a stall
system.switch_cpus_1.iew.memOrderViolationEvents           28                       # Number of memory order violations
system.switch_cpus_1.iew.predictedTakenIncorrect       828966                       # Number of branches that were predicted taken incorrectly
system.switch_cpus_1.iew.predictedNotTakenIncorrect       275467                       # Number of branches that were predicted not taken incorrectly
system.switch_cpus_1.iew.branchMispredicts      1104433                       # Number of branch mispredicts detected at execute
system.switch_cpus_1.iew.iewExecutedInsts    252204404                       # Number of executed instructions
system.switch_cpus_1.iew.iewExecLoadInsts     40086159                       # Number of load instructions executed
system.switch_cpus_1.iew.iewExecSquashedInsts      1456360                       # Number of squashed instructions skipped in execute
system.switch_cpus_1.iew.exec_swp                   0                       # number of swp insts executed
system.switch_cpus_1.iew.exec_nop               51057                       # number of nop insts executed
system.switch_cpus_1.iew.exec_refs           46490920                       # number of memory reference insts executed
system.switch_cpus_1.iew.exec_branches       51203968                       # Number of branches executed
system.switch_cpus_1.iew.exec_stores          6404761                       # Number of stores executed
system.switch_cpus_1.iew.exec_rate           0.445190                       # Inst execution rate
system.switch_cpus_1.iew.wb_sent            237422290                       # cumulative count of insts sent to commit
system.switch_cpus_1.iew.wb_count           236828773                       # cumulative count of insts written-back
system.switch_cpus_1.iew.wb_producers       131821807                       # num instructions producing a value
system.switch_cpus_1.iew.wb_consumers       161052880                       # num instructions consuming a value
system.switch_cpus_1.iew.wb_rate             0.418049                       # insts written-back per cycle
system.switch_cpus_1.iew.wb_fanout           0.818500                       # average fanout of values written-back
system.switch_cpus_1.commit.commitSquashedInsts     68475265                       # The number of squashed insts skipped by commit
system.switch_cpus_1.commit.branchMispredicts       940696                       # The number of times a branch was mispredicted
system.switch_cpus_1.commit.committed_per_cycle::samples    557349226                       # Number of insts commited each cycle
system.switch_cpus_1.commit.committed_per_cycle::mean     0.358842                       # Number of insts commited each cycle
system.switch_cpus_1.commit.committed_per_cycle::stdev     1.444374                       # Number of insts commited each cycle
system.switch_cpus_1.commit.committed_per_cycle::underflows            0      0.00%      0.00% # Number of insts commited each cycle
system.switch_cpus_1.commit.committed_per_cycle::0    509098246     91.34%     91.34% # Number of insts commited each cycle
system.switch_cpus_1.commit.committed_per_cycle::1      9796211      1.76%     93.10% # Number of insts commited each cycle
system.switch_cpus_1.commit.committed_per_cycle::2     15815267      2.84%     95.94% # Number of insts commited each cycle
system.switch_cpus_1.commit.committed_per_cycle::3      1009806      0.18%     96.12% # Number of insts commited each cycle
system.switch_cpus_1.commit.committed_per_cycle::4      1675471      0.30%     96.42% # Number of insts commited each cycle
system.switch_cpus_1.commit.committed_per_cycle::5       305433      0.05%     96.47% # Number of insts commited each cycle
system.switch_cpus_1.commit.committed_per_cycle::6      4268734      0.77%     97.24% # Number of insts commited each cycle
system.switch_cpus_1.commit.committed_per_cycle::7      1337887      0.24%     97.48% # Number of insts commited each cycle
system.switch_cpus_1.commit.committed_per_cycle::8     14042171      2.52%    100.00% # Number of insts commited each cycle
system.switch_cpus_1.commit.committed_per_cycle::overflows            0      0.00%    100.00% # Number of insts commited each cycle
system.switch_cpus_1.commit.committed_per_cycle::min_value            0                       # Number of insts commited each cycle
system.switch_cpus_1.commit.committed_per_cycle::max_value            8                       # Number of insts commited each cycle
system.switch_cpus_1.commit.committed_per_cycle::total    557349226                       # Number of insts commited each cycle
system.switch_cpus_1.commit.committedInsts    200000193                       # Number of instructions committed
system.switch_cpus_1.commit.committedOps    200000193                       # Number of ops (including micro ops) committed
system.switch_cpus_1.commit.swp_count               0                       # Number of s/w prefetches committed
system.switch_cpus_1.commit.refs             29385242                       # Number of memory references committed
system.switch_cpus_1.commit.loads            23277016                       # Number of loads committed
system.switch_cpus_1.commit.membars                 0                       # Number of memory barriers committed
system.switch_cpus_1.commit.branches         42359254                       # Number of branches committed
system.switch_cpus_1.commit.fp_insts              209                       # Number of committed floating point instructions.
system.switch_cpus_1.commit.int_insts       200000000                       # Number of committed integer instructions.
system.switch_cpus_1.commit.function_calls           57                       # Number of function calls committed.
system.switch_cpus_1.commit.op_class_0::No_OpClass          192      0.00%      0.00% # Class of committed instruction
system.switch_cpus_1.commit.op_class_0::IntAlu    170614759     85.31%     85.31% # Class of committed instruction
system.switch_cpus_1.commit.op_class_0::IntMult            0      0.00%     85.31% # Class of committed instruction
system.switch_cpus_1.commit.op_class_0::IntDiv            0      0.00%     85.31% # Class of committed instruction
system.switch_cpus_1.commit.op_class_0::FloatAdd            0      0.00%     85.31% # Class of committed instruction
system.switch_cpus_1.commit.op_class_0::FloatCmp            0      0.00%     85.31% # Class of committed instruction
system.switch_cpus_1.commit.op_class_0::FloatCvt            0      0.00%     85.31% # Class of committed instruction
system.switch_cpus_1.commit.op_class_0::FloatMult            0      0.00%     85.31% # Class of committed instruction
system.switch_cpus_1.commit.op_class_0::FloatMultAcc            0      0.00%     85.31% # Class of committed instruction
system.switch_cpus_1.commit.op_class_0::FloatDiv            0      0.00%     85.31% # Class of committed instruction
system.switch_cpus_1.commit.op_class_0::FloatMisc            0      0.00%     85.31% # Class of committed instruction
system.switch_cpus_1.commit.op_class_0::FloatSqrt            0      0.00%     85.31% # Class of committed instruction
system.switch_cpus_1.commit.op_class_0::SimdAdd            0      0.00%     85.31% # Class of committed instruction
system.switch_cpus_1.commit.op_class_0::SimdAddAcc            0      0.00%     85.31% # Class of committed instruction
system.switch_cpus_1.commit.op_class_0::SimdAlu            0      0.00%     85.31% # Class of committed instruction
system.switch_cpus_1.commit.op_class_0::SimdCmp            0      0.00%     85.31% # Class of committed instruction
system.switch_cpus_1.commit.op_class_0::SimdCvt            0      0.00%     85.31% # Class of committed instruction
system.switch_cpus_1.commit.op_class_0::SimdMisc            0      0.00%     85.31% # Class of committed instruction
system.switch_cpus_1.commit.op_class_0::SimdMult            0      0.00%     85.31% # Class of committed instruction
system.switch_cpus_1.commit.op_class_0::SimdMultAcc            0      0.00%     85.31% # Class of committed instruction
system.switch_cpus_1.commit.op_class_0::SimdShift            0      0.00%     85.31% # Class of committed instruction
system.switch_cpus_1.commit.op_class_0::SimdShiftAcc            0      0.00%     85.31% # Class of committed instruction
system.switch_cpus_1.commit.op_class_0::SimdSqrt            0      0.00%     85.31% # Class of committed instruction
system.switch_cpus_1.commit.op_class_0::SimdFloatAdd            0      0.00%     85.31% # Class of committed instruction
system.switch_cpus_1.commit.op_class_0::SimdFloatAlu            0      0.00%     85.31% # Class of committed instruction
system.switch_cpus_1.commit.op_class_0::SimdFloatCmp            0      0.00%     85.31% # Class of committed instruction
system.switch_cpus_1.commit.op_class_0::SimdFloatCvt            0      0.00%     85.31% # Class of committed instruction
system.switch_cpus_1.commit.op_class_0::SimdFloatDiv            0      0.00%     85.31% # Class of committed instruction
system.switch_cpus_1.commit.op_class_0::SimdFloatMisc            0      0.00%     85.31% # Class of committed instruction
system.switch_cpus_1.commit.op_class_0::SimdFloatMult            0      0.00%     85.31% # Class of committed instruction
system.switch_cpus_1.commit.op_class_0::SimdFloatMultAcc            0      0.00%     85.31% # Class of committed instruction
system.switch_cpus_1.commit.op_class_0::SimdFloatSqrt            0      0.00%     85.31% # Class of committed instruction
system.switch_cpus_1.commit.op_class_0::MemRead     23276939     11.64%     96.95% # Class of committed instruction
system.switch_cpus_1.commit.op_class_0::MemWrite      6108094      3.05%    100.00% # Class of committed instruction
system.switch_cpus_1.commit.op_class_0::FloatMemRead           77      0.00%    100.00% # Class of committed instruction
system.switch_cpus_1.commit.op_class_0::FloatMemWrite          132      0.00%    100.00% # Class of committed instruction
system.switch_cpus_1.commit.op_class_0::IprAccess            0      0.00%    100.00% # Class of committed instruction
system.switch_cpus_1.commit.op_class_0::InstPrefetch            0      0.00%    100.00% # Class of committed instruction
system.switch_cpus_1.commit.op_class_0::total    200000193                       # Class of committed instruction
system.switch_cpus_1.commit.bw_lim_events     14042171                       # number cycles where commit BW limit reached
system.switch_cpus_1.rob.rob_reads          811191026                       # The number of ROB reads
system.switch_cpus_1.rob.rob_writes         546111663                       # The number of ROB writes
system.switch_cpus_1.timesIdled                     5                       # Number of times that the entire CPU went into an idle state and unscheduled itself
system.switch_cpus_1.idleCycles                  1473                       # Total number of cycles that the CPU has spent unscheduled due to idling
system.switch_cpus_1.committedInsts         200000001                       # Number of Instructions Simulated
system.switch_cpus_1.committedOps           200000001                       # Number of Ops (including micro ops) Simulated
system.switch_cpus_1.cpi                     2.832550                       # CPI: Cycles Per Instruction
system.switch_cpus_1.cpi_total               2.832550                       # CPI: Total CPI of All Threads
system.switch_cpus_1.ipc                     0.353039                       # IPC: Instructions Per Cycle
system.switch_cpus_1.ipc_total               0.353039                       # IPC: Total IPC of All Threads
system.switch_cpus_1.int_regfile_reads      382395544                       # number of integer regfile reads
system.switch_cpus_1.int_regfile_writes     179249832                       # number of integer regfile writes
system.switch_cpus_1.fp_regfile_reads             758                       # number of floating regfile reads
system.switch_cpus_1.fp_regfile_writes            292                       # number of floating regfile writes
system.tol3bus.snoop_filter.tot_requests     70088790                       # Total number of requests made to the snoop filter.
system.tol3bus.snoop_filter.hit_single_requests     35042323                       # Number of requests hitting in the snoop filter with a single holder of the requested data.
system.tol3bus.snoop_filter.hit_multi_requests            0                       # Number of requests hitting in the snoop filter with multiple (>1) holders of the requested data.
system.tol3bus.snoop_filter.tot_snoops             47                       # Total number of snoops made to the snoop filter.
system.tol3bus.snoop_filter.hit_single_snoops           47                       # Number of snoops hitting in the snoop filter with a single holder of the requested data.
system.tol3bus.snoop_filter.hit_multi_snoops            0                       # Number of snoops hitting in the snoop filter with multiple (>1) holders of the requested data.
system.tol3bus.pwrStateResidencyTicks::UNDEFINED 403987900198842                       # Cumulative time (in ticks) in various power states
system.tol3bus.trans_dist::ReadResp          35046270                       # Transaction distribution
system.tol3bus.trans_dist::WritebackDirty     27120973                       # Transaction distribution
system.tol3bus.trans_dist::CleanEvict        42902281                       # Transaction distribution
system.tol3bus.trans_dist::ReadExReq              197                       # Transaction distribution
system.tol3bus.trans_dist::ReadExResp             197                       # Transaction distribution
system.tol3bus.trans_dist::ReadSharedReq     35046270                       # Transaction distribution
system.tol3bus.pkt_count_system.cpu.l2.mem_side::system.l3.cpu_side    105135257                       # Packet count per connected master and slave (bytes)
system.tol3bus.pkt_size_system.cpu.l2.mem_side::system.l3.cpu_side   3111320896                       # Cumulative packet size per connected master and slave (bytes)
system.tol3bus.snoops                        34980931                       # Total snoops (count)
system.tol3bus.snoopTraffic                 867395264                       # Total snoop traffic (bytes)
system.tol3bus.snoop_fanout::samples         70027398                       # Request fanout histogram
system.tol3bus.snoop_fanout::mean            0.000001                       # Request fanout histogram
system.tol3bus.snoop_fanout::stdev           0.000819                       # Request fanout histogram
system.tol3bus.snoop_fanout::underflows             0      0.00%      0.00% # Request fanout histogram
system.tol3bus.snoop_fanout::0               70027351    100.00%    100.00% # Request fanout histogram
system.tol3bus.snoop_fanout::1                     47      0.00%    100.00% # Request fanout histogram
system.tol3bus.snoop_fanout::overflows              0      0.00%    100.00% # Request fanout histogram
system.tol3bus.snoop_fanout::min_value              0                       # Request fanout histogram
system.tol3bus.snoop_fanout::max_value              1                       # Request fanout histogram
system.tol3bus.snoop_fanout::total           70027398                       # Request fanout histogram
system.tol3bus.reqLayer0.occupancy        27857685096                       # Layer occupancy (ticks)
system.tol3bus.reqLayer0.utilization              0.6                       # Layer utilization (%)
system.tol3bus.respLayer0.occupancy       23340947022                       # Layer occupancy (ticks)
system.tol3bus.respLayer0.utilization             0.5                       # Layer utilization (%)

---------- End Simulation Statistics   ----------
