
---------- Begin Simulation Statistics ----------
sim_seconds                                  4.915881                       # Number of seconds simulated
sim_ticks                                4915880575956                       # Number of ticks simulated
final_tick                               131868877100688                       # Number of ticks from beginning of simulation (restored from checkpoints and never reset)
sim_freq                                 1000000000000                       # Frequency of simulated ticks
host_inst_rate                                  68445                       # Simulator instruction rate (inst/s)
host_op_rate                                    68445                       # Simulator op (including micro ops) rate (op/s)
host_tick_rate                              168232999                       # Simulator tick rate (ticks/s)
host_mem_usage                                2496332                       # Number of bytes of host memory used
host_seconds                                 29220.67                       # Real time elapsed on the host
sim_insts                                  2000000007                       # Number of instructions simulated
sim_ops                                    2000000007                       # Number of ops (including micro ops) simulated
system.voltage_domain.voltage                       1                       # Voltage in Volts
system.clk_domain.clock                          1000                       # Clock period in ticks
system.mem_ctrls0.pwrStateResidencyTicks::UNDEFINED 131868877100688                       # Cumulative time (in ticks) in various power states
system.mem_ctrls0.bytes_read::cpu.inst            128                       # Number of bytes read from this memory
system.mem_ctrls0.bytes_read::switch_cpus.inst       675712                       # Number of bytes read from this memory
system.mem_ctrls0.bytes_read::switch_cpus.data    363263296                       # Number of bytes read from this memory
system.mem_ctrls0.bytes_read::switch_cpus_1.inst      1066560                       # Number of bytes read from this memory
system.mem_ctrls0.bytes_read::switch_cpus_1.data    393926720                       # Number of bytes read from this memory
system.mem_ctrls0.bytes_read::total         758932416                       # Number of bytes read from this memory
system.mem_ctrls0.bytes_inst_read::cpu.inst          128                       # Number of instructions bytes read from this memory
system.mem_ctrls0.bytes_inst_read::switch_cpus.inst       675712                       # Number of instructions bytes read from this memory
system.mem_ctrls0.bytes_inst_read::switch_cpus_1.inst      1066560                       # Number of instructions bytes read from this memory
system.mem_ctrls0.bytes_inst_read::total      1742400                       # Number of instructions bytes read from this memory
system.mem_ctrls0.bytes_written::writebacks    316858624                       # Number of bytes written to this memory
system.mem_ctrls0.bytes_written::total      316858624                       # Number of bytes written to this memory
system.mem_ctrls0.num_reads::cpu.inst               2                       # Number of read requests responded to by this memory
system.mem_ctrls0.num_reads::switch_cpus.inst        10558                       # Number of read requests responded to by this memory
system.mem_ctrls0.num_reads::switch_cpus.data      5675989                       # Number of read requests responded to by this memory
system.mem_ctrls0.num_reads::switch_cpus_1.inst        16665                       # Number of read requests responded to by this memory
system.mem_ctrls0.num_reads::switch_cpus_1.data      6155105                       # Number of read requests responded to by this memory
system.mem_ctrls0.num_reads::total           11858319                       # Number of read requests responded to by this memory
system.mem_ctrls0.num_writes::writebacks      4950916                       # Number of write requests responded to by this memory
system.mem_ctrls0.num_writes::total           4950916                       # Number of write requests responded to by this memory
system.mem_ctrls0.bw_read::cpu.inst                26                       # Total read bandwidth from this memory (bytes/s)
system.mem_ctrls0.bw_read::switch_cpus.inst       137455                       # Total read bandwidth from this memory (bytes/s)
system.mem_ctrls0.bw_read::switch_cpus.data     73895875                       # Total read bandwidth from this memory (bytes/s)
system.mem_ctrls0.bw_read::switch_cpus_1.inst       216962                       # Total read bandwidth from this memory (bytes/s)
system.mem_ctrls0.bw_read::switch_cpus_1.data     80133501                       # Total read bandwidth from this memory (bytes/s)
system.mem_ctrls0.bw_read::total            154383819                       # Total read bandwidth from this memory (bytes/s)
system.mem_ctrls0.bw_inst_read::cpu.inst           26                       # Instruction read bandwidth from this memory (bytes/s)
system.mem_ctrls0.bw_inst_read::switch_cpus.inst       137455                       # Instruction read bandwidth from this memory (bytes/s)
system.mem_ctrls0.bw_inst_read::switch_cpus_1.inst       216962                       # Instruction read bandwidth from this memory (bytes/s)
system.mem_ctrls0.bw_inst_read::total          354443                       # Instruction read bandwidth from this memory (bytes/s)
system.mem_ctrls0.bw_write::writebacks       64456127                       # Write bandwidth from this memory (bytes/s)
system.mem_ctrls0.bw_write::total            64456127                       # Write bandwidth from this memory (bytes/s)
system.mem_ctrls0.bw_total::writebacks       64456127                       # Total bandwidth to/from this memory (bytes/s)
system.mem_ctrls0.bw_total::cpu.inst               26                       # Total bandwidth to/from this memory (bytes/s)
system.mem_ctrls0.bw_total::switch_cpus.inst       137455                       # Total bandwidth to/from this memory (bytes/s)
system.mem_ctrls0.bw_total::switch_cpus.data     73895875                       # Total bandwidth to/from this memory (bytes/s)
system.mem_ctrls0.bw_total::switch_cpus_1.inst       216962                       # Total bandwidth to/from this memory (bytes/s)
system.mem_ctrls0.bw_total::switch_cpus_1.data     80133501                       # Total bandwidth to/from this memory (bytes/s)
system.mem_ctrls0.bw_total::total           218839946                       # Total bandwidth to/from this memory (bytes/s)
system.mem_ctrls0.readReqs                   11858319                       # Number of read requests accepted
system.mem_ctrls0.writeReqs                   4950916                       # Number of write requests accepted
system.mem_ctrls0.readBursts                 11858319                       # Number of DRAM read bursts, including those serviced by the write queue
system.mem_ctrls0.writeBursts                 4950916                       # Number of DRAM write bursts, including those merged in the write queue
system.mem_ctrls0.bytesReadDRAM             758606272                       # Total number of bytes read from DRAM
system.mem_ctrls0.bytesReadWrQ                 326144                       # Total number of bytes read from write queue
system.mem_ctrls0.bytesWritten              316856576                       # Total number of bytes written to DRAM
system.mem_ctrls0.bytesReadSys              758932416                       # Total read bytes from the system interface side
system.mem_ctrls0.bytesWrittenSys           316858624                       # Total written bytes from the system interface side
system.mem_ctrls0.servicedByWrQ                  5096                       # Number of DRAM read bursts serviced by the write queue
system.mem_ctrls0.mergedWrBursts                    0                       # Number of DRAM write bursts merged with an existing one
system.mem_ctrls0.neitherReadNorWriteReqs            0                       # Number of requests that are neither read nor write
system.mem_ctrls0.perBankRdBursts::0           729870                       # Per bank write bursts
system.mem_ctrls0.perBankRdBursts::1           748805                       # Per bank write bursts
system.mem_ctrls0.perBankRdBursts::2           751070                       # Per bank write bursts
system.mem_ctrls0.perBankRdBursts::3           726127                       # Per bank write bursts
system.mem_ctrls0.perBankRdBursts::4           724002                       # Per bank write bursts
system.mem_ctrls0.perBankRdBursts::5           751139                       # Per bank write bursts
system.mem_ctrls0.perBankRdBursts::6           762214                       # Per bank write bursts
system.mem_ctrls0.perBankRdBursts::7           757758                       # Per bank write bursts
system.mem_ctrls0.perBankRdBursts::8           773285                       # Per bank write bursts
system.mem_ctrls0.perBankRdBursts::9           750156                       # Per bank write bursts
system.mem_ctrls0.perBankRdBursts::10          721697                       # Per bank write bursts
system.mem_ctrls0.perBankRdBursts::11          724562                       # Per bank write bursts
system.mem_ctrls0.perBankRdBursts::12          716648                       # Per bank write bursts
system.mem_ctrls0.perBankRdBursts::13          740038                       # Per bank write bursts
system.mem_ctrls0.perBankRdBursts::14          743200                       # Per bank write bursts
system.mem_ctrls0.perBankRdBursts::15          732652                       # Per bank write bursts
system.mem_ctrls0.perBankWrBursts::0           305942                       # Per bank write bursts
system.mem_ctrls0.perBankWrBursts::1           307222                       # Per bank write bursts
system.mem_ctrls0.perBankWrBursts::2           314706                       # Per bank write bursts
system.mem_ctrls0.perBankWrBursts::3           298228                       # Per bank write bursts
system.mem_ctrls0.perBankWrBursts::4           299746                       # Per bank write bursts
system.mem_ctrls0.perBankWrBursts::5           315187                       # Per bank write bursts
system.mem_ctrls0.perBankWrBursts::6           324043                       # Per bank write bursts
system.mem_ctrls0.perBankWrBursts::7           321601                       # Per bank write bursts
system.mem_ctrls0.perBankWrBursts::8           322576                       # Per bank write bursts
system.mem_ctrls0.perBankWrBursts::9           309856                       # Per bank write bursts
system.mem_ctrls0.perBankWrBursts::10          301856                       # Per bank write bursts
system.mem_ctrls0.perBankWrBursts::11          308850                       # Per bank write bursts
system.mem_ctrls0.perBankWrBursts::12          295132                       # Per bank write bursts
system.mem_ctrls0.perBankWrBursts::13          306744                       # Per bank write bursts
system.mem_ctrls0.perBankWrBursts::14          315161                       # Per bank write bursts
system.mem_ctrls0.perBankWrBursts::15          304034                       # Per bank write bursts
system.mem_ctrls0.numRdRetry                        0                       # Number of times read queue was full causing retry
system.mem_ctrls0.numWrRetry                        0                       # Number of times write queue was full causing retry
system.mem_ctrls0.totGap                 4915880305893                       # Total gap between requests
system.mem_ctrls0.readPktSize::0                    0                       # Read request sizes (log2)
system.mem_ctrls0.readPktSize::1                    0                       # Read request sizes (log2)
system.mem_ctrls0.readPktSize::2                    0                       # Read request sizes (log2)
system.mem_ctrls0.readPktSize::3                    0                       # Read request sizes (log2)
system.mem_ctrls0.readPktSize::4                    0                       # Read request sizes (log2)
system.mem_ctrls0.readPktSize::5                    0                       # Read request sizes (log2)
system.mem_ctrls0.readPktSize::6             11858319                       # Read request sizes (log2)
system.mem_ctrls0.writePktSize::0                   0                       # Write request sizes (log2)
system.mem_ctrls0.writePktSize::1                   0                       # Write request sizes (log2)
system.mem_ctrls0.writePktSize::2                   0                       # Write request sizes (log2)
system.mem_ctrls0.writePktSize::3                   0                       # Write request sizes (log2)
system.mem_ctrls0.writePktSize::4                   0                       # Write request sizes (log2)
system.mem_ctrls0.writePktSize::5                   0                       # Write request sizes (log2)
system.mem_ctrls0.writePktSize::6             4950916                       # Write request sizes (log2)
system.mem_ctrls0.rdQLenPdf::0               10625912                       # What read queue length does an incoming req see
system.mem_ctrls0.rdQLenPdf::1                1089414                       # What read queue length does an incoming req see
system.mem_ctrls0.rdQLenPdf::2                 129404                       # What read queue length does an incoming req see
system.mem_ctrls0.rdQLenPdf::3                   8485                       # What read queue length does an incoming req see
system.mem_ctrls0.rdQLenPdf::4                      8                       # What read queue length does an incoming req see
system.mem_ctrls0.rdQLenPdf::5                      0                       # What read queue length does an incoming req see
system.mem_ctrls0.rdQLenPdf::6                      0                       # What read queue length does an incoming req see
system.mem_ctrls0.rdQLenPdf::7                      0                       # What read queue length does an incoming req see
system.mem_ctrls0.rdQLenPdf::8                      0                       # What read queue length does an incoming req see
system.mem_ctrls0.rdQLenPdf::9                      0                       # What read queue length does an incoming req see
system.mem_ctrls0.rdQLenPdf::10                     0                       # What read queue length does an incoming req see
system.mem_ctrls0.rdQLenPdf::11                     0                       # What read queue length does an incoming req see
system.mem_ctrls0.rdQLenPdf::12                     0                       # What read queue length does an incoming req see
system.mem_ctrls0.rdQLenPdf::13                     0                       # What read queue length does an incoming req see
system.mem_ctrls0.rdQLenPdf::14                     0                       # What read queue length does an incoming req see
system.mem_ctrls0.rdQLenPdf::15                     0                       # What read queue length does an incoming req see
system.mem_ctrls0.rdQLenPdf::16                     0                       # What read queue length does an incoming req see
system.mem_ctrls0.rdQLenPdf::17                     0                       # What read queue length does an incoming req see
system.mem_ctrls0.rdQLenPdf::18                     0                       # What read queue length does an incoming req see
system.mem_ctrls0.rdQLenPdf::19                     0                       # What read queue length does an incoming req see
system.mem_ctrls0.rdQLenPdf::20                     0                       # What read queue length does an incoming req see
system.mem_ctrls0.rdQLenPdf::21                     0                       # What read queue length does an incoming req see
system.mem_ctrls0.rdQLenPdf::22                     0                       # What read queue length does an incoming req see
system.mem_ctrls0.rdQLenPdf::23                     0                       # What read queue length does an incoming req see
system.mem_ctrls0.rdQLenPdf::24                     0                       # What read queue length does an incoming req see
system.mem_ctrls0.rdQLenPdf::25                     0                       # What read queue length does an incoming req see
system.mem_ctrls0.rdQLenPdf::26                     0                       # What read queue length does an incoming req see
system.mem_ctrls0.rdQLenPdf::27                     0                       # What read queue length does an incoming req see
system.mem_ctrls0.rdQLenPdf::28                     0                       # What read queue length does an incoming req see
system.mem_ctrls0.rdQLenPdf::29                     0                       # What read queue length does an incoming req see
system.mem_ctrls0.rdQLenPdf::30                     0                       # What read queue length does an incoming req see
system.mem_ctrls0.rdQLenPdf::31                     0                       # What read queue length does an incoming req see
system.mem_ctrls0.wrQLenPdf::0                      2                       # What write queue length does an incoming req see
system.mem_ctrls0.wrQLenPdf::1                      2                       # What write queue length does an incoming req see
system.mem_ctrls0.wrQLenPdf::2                      2                       # What write queue length does an incoming req see
system.mem_ctrls0.wrQLenPdf::3                      2                       # What write queue length does an incoming req see
system.mem_ctrls0.wrQLenPdf::4                      2                       # What write queue length does an incoming req see
system.mem_ctrls0.wrQLenPdf::5                      2                       # What write queue length does an incoming req see
system.mem_ctrls0.wrQLenPdf::6                      2                       # What write queue length does an incoming req see
system.mem_ctrls0.wrQLenPdf::7                      2                       # What write queue length does an incoming req see
system.mem_ctrls0.wrQLenPdf::8                      2                       # What write queue length does an incoming req see
system.mem_ctrls0.wrQLenPdf::9                      2                       # What write queue length does an incoming req see
system.mem_ctrls0.wrQLenPdf::10                     2                       # What write queue length does an incoming req see
system.mem_ctrls0.wrQLenPdf::11                     2                       # What write queue length does an incoming req see
system.mem_ctrls0.wrQLenPdf::12                     2                       # What write queue length does an incoming req see
system.mem_ctrls0.wrQLenPdf::13                     2                       # What write queue length does an incoming req see
system.mem_ctrls0.wrQLenPdf::14                     2                       # What write queue length does an incoming req see
system.mem_ctrls0.wrQLenPdf::15                231674                       # What write queue length does an incoming req see
system.mem_ctrls0.wrQLenPdf::16                243014                       # What write queue length does an incoming req see
system.mem_ctrls0.wrQLenPdf::17                276003                       # What write queue length does an incoming req see
system.mem_ctrls0.wrQLenPdf::18                278826                       # What write queue length does an incoming req see
system.mem_ctrls0.wrQLenPdf::19                279141                       # What write queue length does an incoming req see
system.mem_ctrls0.wrQLenPdf::20                279353                       # What write queue length does an incoming req see
system.mem_ctrls0.wrQLenPdf::21                279424                       # What write queue length does an incoming req see
system.mem_ctrls0.wrQLenPdf::22                279866                       # What write queue length does an incoming req see
system.mem_ctrls0.wrQLenPdf::23                282166                       # What write queue length does an incoming req see
system.mem_ctrls0.wrQLenPdf::24                279990                       # What write queue length does an incoming req see
system.mem_ctrls0.wrQLenPdf::25                279419                       # What write queue length does an incoming req see
system.mem_ctrls0.wrQLenPdf::26                279438                       # What write queue length does an incoming req see
system.mem_ctrls0.wrQLenPdf::27                279513                       # What write queue length does an incoming req see
system.mem_ctrls0.wrQLenPdf::28                279683                       # What write queue length does an incoming req see
system.mem_ctrls0.wrQLenPdf::29                280767                       # What write queue length does an incoming req see
system.mem_ctrls0.wrQLenPdf::30                285305                       # What write queue length does an incoming req see
system.mem_ctrls0.wrQLenPdf::31                278596                       # What write queue length does an incoming req see
system.mem_ctrls0.wrQLenPdf::32                278538                       # What write queue length does an incoming req see
system.mem_ctrls0.wrQLenPdf::33                   152                       # What write queue length does an incoming req see
system.mem_ctrls0.wrQLenPdf::34                    16                       # What write queue length does an incoming req see
system.mem_ctrls0.wrQLenPdf::35                     2                       # What write queue length does an incoming req see
system.mem_ctrls0.wrQLenPdf::36                     0                       # What write queue length does an incoming req see
system.mem_ctrls0.wrQLenPdf::37                     0                       # What write queue length does an incoming req see
system.mem_ctrls0.wrQLenPdf::38                     0                       # What write queue length does an incoming req see
system.mem_ctrls0.wrQLenPdf::39                     0                       # What write queue length does an incoming req see
system.mem_ctrls0.wrQLenPdf::40                     0                       # What write queue length does an incoming req see
system.mem_ctrls0.wrQLenPdf::41                     0                       # What write queue length does an incoming req see
system.mem_ctrls0.wrQLenPdf::42                     0                       # What write queue length does an incoming req see
system.mem_ctrls0.wrQLenPdf::43                     0                       # What write queue length does an incoming req see
system.mem_ctrls0.wrQLenPdf::44                     0                       # What write queue length does an incoming req see
system.mem_ctrls0.wrQLenPdf::45                     0                       # What write queue length does an incoming req see
system.mem_ctrls0.wrQLenPdf::46                     0                       # What write queue length does an incoming req see
system.mem_ctrls0.wrQLenPdf::47                     0                       # What write queue length does an incoming req see
system.mem_ctrls0.wrQLenPdf::48                     0                       # What write queue length does an incoming req see
system.mem_ctrls0.wrQLenPdf::49                     0                       # What write queue length does an incoming req see
system.mem_ctrls0.wrQLenPdf::50                     0                       # What write queue length does an incoming req see
system.mem_ctrls0.wrQLenPdf::51                     0                       # What write queue length does an incoming req see
system.mem_ctrls0.wrQLenPdf::52                     0                       # What write queue length does an incoming req see
system.mem_ctrls0.wrQLenPdf::53                     0                       # What write queue length does an incoming req see
system.mem_ctrls0.wrQLenPdf::54                     0                       # What write queue length does an incoming req see
system.mem_ctrls0.wrQLenPdf::55                     0                       # What write queue length does an incoming req see
system.mem_ctrls0.wrQLenPdf::56                     0                       # What write queue length does an incoming req see
system.mem_ctrls0.wrQLenPdf::57                     0                       # What write queue length does an incoming req see
system.mem_ctrls0.wrQLenPdf::58                     0                       # What write queue length does an incoming req see
system.mem_ctrls0.wrQLenPdf::59                     0                       # What write queue length does an incoming req see
system.mem_ctrls0.wrQLenPdf::60                     0                       # What write queue length does an incoming req see
system.mem_ctrls0.wrQLenPdf::61                     0                       # What write queue length does an incoming req see
system.mem_ctrls0.wrQLenPdf::62                     0                       # What write queue length does an incoming req see
system.mem_ctrls0.wrQLenPdf::63                     0                       # What write queue length does an incoming req see
system.mem_ctrls0.bytesPerActivate::samples     10580538                       # Bytes accessed per row activation
system.mem_ctrls0.bytesPerActivate::mean   101.645330                       # Bytes accessed per row activation
system.mem_ctrls0.bytesPerActivate::gmean    83.690449                       # Bytes accessed per row activation
system.mem_ctrls0.bytesPerActivate::stdev    93.975383                       # Bytes accessed per row activation
system.mem_ctrls0.bytesPerActivate::0-127      7958674     75.22%     75.22% # Bytes accessed per row activation
system.mem_ctrls0.bytesPerActivate::128-255      1841053     17.40%     92.62% # Bytes accessed per row activation
system.mem_ctrls0.bytesPerActivate::256-383       441213      4.17%     96.79% # Bytes accessed per row activation
system.mem_ctrls0.bytesPerActivate::384-511       186842      1.77%     98.56% # Bytes accessed per row activation
system.mem_ctrls0.bytesPerActivate::512-639        90542      0.86%     99.41% # Bytes accessed per row activation
system.mem_ctrls0.bytesPerActivate::640-767        36824      0.35%     99.76% # Bytes accessed per row activation
system.mem_ctrls0.bytesPerActivate::768-895        13152      0.12%     99.88% # Bytes accessed per row activation
system.mem_ctrls0.bytesPerActivate::896-1023         6333      0.06%     99.94% # Bytes accessed per row activation
system.mem_ctrls0.bytesPerActivate::1024-1151         5905      0.06%    100.00% # Bytes accessed per row activation
system.mem_ctrls0.bytesPerActivate::total     10580538                       # Bytes accessed per row activation
system.mem_ctrls0.rdPerTurnAround::samples       278516                       # Reads before turning the bus around for writes
system.mem_ctrls0.rdPerTurnAround::mean     42.558424                       # Reads before turning the bus around for writes
system.mem_ctrls0.rdPerTurnAround::gmean    40.944398                       # Reads before turning the bus around for writes
system.mem_ctrls0.rdPerTurnAround::stdev    46.146930                       # Reads before turning the bus around for writes
system.mem_ctrls0.rdPerTurnAround::0-1023       278514    100.00%    100.00% # Reads before turning the bus around for writes
system.mem_ctrls0.rdPerTurnAround::1024-2047            1      0.00%    100.00% # Reads before turning the bus around for writes
system.mem_ctrls0.rdPerTurnAround::23552-24575            1      0.00%    100.00% # Reads before turning the bus around for writes
system.mem_ctrls0.rdPerTurnAround::total       278516                       # Reads before turning the bus around for writes
system.mem_ctrls0.wrPerTurnAround::samples       278516                       # Writes before turning the bus around for reads
system.mem_ctrls0.wrPerTurnAround::mean     17.775941                       # Writes before turning the bus around for reads
system.mem_ctrls0.wrPerTurnAround::gmean    17.759550                       # Writes before turning the bus around for reads
system.mem_ctrls0.wrPerTurnAround::stdev     0.748162                       # Writes before turning the bus around for reads
system.mem_ctrls0.wrPerTurnAround::16           34877     12.52%     12.52% # Writes before turning the bus around for reads
system.mem_ctrls0.wrPerTurnAround::17           10100      3.63%     16.15% # Writes before turning the bus around for reads
system.mem_ctrls0.wrPerTurnAround::18          217349     78.04%     94.19% # Writes before turning the bus around for reads
system.mem_ctrls0.wrPerTurnAround::19           15023      5.39%     99.58% # Writes before turning the bus around for reads
system.mem_ctrls0.wrPerTurnAround::20            1087      0.39%     99.97% # Writes before turning the bus around for reads
system.mem_ctrls0.wrPerTurnAround::21              76      0.03%    100.00% # Writes before turning the bus around for reads
system.mem_ctrls0.wrPerTurnAround::22               3      0.00%    100.00% # Writes before turning the bus around for reads
system.mem_ctrls0.wrPerTurnAround::31               1      0.00%    100.00% # Writes before turning the bus around for reads
system.mem_ctrls0.wrPerTurnAround::total       278516                       # Writes before turning the bus around for reads
system.mem_ctrls0.totQLat                258190345363                       # Total ticks spent queuing
system.mem_ctrls0.totMemAccLat           480438276613                       # Total ticks spent from burst creation until serviced by the DRAM
system.mem_ctrls0.totBusLat               59266115000                       # Total ticks spent in databus transfers
system.mem_ctrls0.avgQLat                    21782.29                       # Average queueing delay per DRAM burst
system.mem_ctrls0.avgBusLat                   5000.00                       # Average bus latency per DRAM burst
system.mem_ctrls0.avgMemAccLat               40532.29                       # Average memory access latency per DRAM burst
system.mem_ctrls0.avgRdBW                      154.32                       # Average DRAM read bandwidth in MiByte/s
system.mem_ctrls0.avgWrBW                       64.46                       # Average achieved write bandwidth in MiByte/s
system.mem_ctrls0.avgRdBWSys                   154.38                       # Average system read bandwidth in MiByte/s
system.mem_ctrls0.avgWrBWSys                    64.46                       # Average system write bandwidth in MiByte/s
system.mem_ctrls0.peakBW                     12800.00                       # Theoretical peak bandwidth in MiByte/s
system.mem_ctrls0.busUtil                        1.71                       # Data bus utilization in percentage
system.mem_ctrls0.busUtilRead                    1.21                       # Data bus utilization in percentage for reads
system.mem_ctrls0.busUtilWrite                   0.50                       # Data bus utilization in percentage for writes
system.mem_ctrls0.avgRdQLen                      1.08                       # Average read queue length when enqueuing
system.mem_ctrls0.avgWrQLen                     24.58                       # Average write queue length when enqueuing
system.mem_ctrls0.readRowHits                 6137092                       # Number of row buffer hits during reads
system.mem_ctrls0.writeRowHits                  86473                       # Number of row buffer hits during writes
system.mem_ctrls0.readRowHitRate                51.78                       # Row buffer hit rate for reads
system.mem_ctrls0.writeRowHitRate                1.75                       # Row buffer hit rate for writes
system.mem_ctrls0.avgGap                    292451.16                       # Average gap between requests
system.mem_ctrls0.pageHitRate                   37.04                       # Row buffer hit rate, read and write combined
system.mem_ctrls0_0.actEnergy             37869938820                       # Energy for activate commands per rank (pJ)
system.mem_ctrls0_0.preEnergy             20128346040                       # Energy for precharge commands per rank (pJ)
system.mem_ctrls0_0.readEnergy            42490032900                       # Energy for read commands per rank (pJ)
system.mem_ctrls0_0.writeEnergy           12980443500                       # Energy for write commands per rank (pJ)
system.mem_ctrls0_0.refreshEnergy        389521338960.000061                       # Energy for refresh commands per rank (pJ)
system.mem_ctrls0_0.actBackEnergy        277955146560                       # Energy for active background per rank (pJ)
system.mem_ctrls0_0.preBackEnergy          9751837920                       # Energy for precharge background per rank (pJ)
system.mem_ctrls0_0.actPowerDownEnergy   1615749220920                       # Energy for active power-down per rank (pJ)
system.mem_ctrls0_0.prePowerDownEnergy   250922184480                       # Energy for precharge power-down per rank (pJ)
system.mem_ctrls0_0.selfRefreshEnergy     28044155145                       # Energy for self refresh per rank (pJ)
system.mem_ctrls0_0.totalEnergy          2685468555045                       # Total energy per rank (pJ)
system.mem_ctrls0_0.averagePower           546.284333                       # Core power per rank (mW)
system.mem_ctrls0_0.totalIdleTime        4280814775565                       # Total Idle time Per DRAM Rank
system.mem_ctrls0_0.memoryStateTime::IDLE   7311013617                       # Time in different power states
system.mem_ctrls0_0.memoryStateTime::REF 164863076000                       # Time in different power states
system.mem_ctrls0_0.memoryStateTime::SREF  84057142684                       # Time in different power states
system.mem_ctrls0_0.memoryStateTime::PRE_PDN 653444464913                       # Time in different power states
system.mem_ctrls0_0.memoryStateTime::ACT 462891597357                       # Time in different power states
system.mem_ctrls0_0.memoryStateTime::ACT_PDN 3543313281385                       # Time in different power states
system.mem_ctrls0_1.actEnergy             37675131060                       # Energy for activate commands per rank (pJ)
system.mem_ctrls0_1.preEnergy             20024795670                       # Energy for precharge commands per rank (pJ)
system.mem_ctrls0_1.readEnergy            42141979320                       # Energy for read commands per rank (pJ)
system.mem_ctrls0_1.writeEnergy           12863170980                       # Energy for write commands per rank (pJ)
system.mem_ctrls0_1.refreshEnergy        389522568240.000061                       # Energy for refresh commands per rank (pJ)
system.mem_ctrls0_1.actBackEnergy        278643401040                       # Energy for active background per rank (pJ)
system.mem_ctrls0_1.preBackEnergy          9764833920                       # Energy for precharge background per rank (pJ)
system.mem_ctrls0_1.actPowerDownEnergy   1610844914700                       # Energy for active power-down per rank (pJ)
system.mem_ctrls0_1.prePowerDownEnergy   253710411840                       # Energy for precharge power-down per rank (pJ)
system.mem_ctrls0_1.selfRefreshEnergy     28663485435                       # Energy for self refresh per rank (pJ)
system.mem_ctrls0_1.totalEnergy          2683914001605                       # Total energy per rank (pJ)
system.mem_ctrls0_1.averagePower           545.968101                       # Core power per rank (mW)
system.mem_ctrls0_1.totalIdleTime        4279268370048                       # Total Idle time Per DRAM Rank
system.mem_ctrls0_1.memoryStateTime::IDLE   7393044784                       # Time in different power states
system.mem_ctrls0_1.memoryStateTime::REF 164864922000                       # Time in different power states
system.mem_ctrls0_1.memoryStateTime::SREF  86000445947                       # Time in different power states
system.mem_ctrls0_1.memoryStateTime::PRE_PDN 660706250119                       # Time in different power states
system.mem_ctrls0_1.memoryStateTime::ACT 464351928545                       # Time in different power states
system.mem_ctrls0_1.memoryStateTime::ACT_PDN 3532563984561                       # Time in different power states
system.mem_ctrls1.pwrStateResidencyTicks::UNDEFINED 131868877100688                       # Cumulative time (in ticks) in various power states
system.mem_ctrls1.bytes_read::cpu.data            128                       # Number of bytes read from this memory
system.mem_ctrls1.bytes_read::switch_cpus.inst       696640                       # Number of bytes read from this memory
system.mem_ctrls1.bytes_read::switch_cpus.data    364081472                       # Number of bytes read from this memory
system.mem_ctrls1.bytes_read::switch_cpus_1.inst      1029760                       # Number of bytes read from this memory
system.mem_ctrls1.bytes_read::switch_cpus_1.data    394682432                       # Number of bytes read from this memory
system.mem_ctrls1.bytes_read::total         760490432                       # Number of bytes read from this memory
system.mem_ctrls1.bytes_inst_read::switch_cpus.inst       696640                       # Number of instructions bytes read from this memory
system.mem_ctrls1.bytes_inst_read::switch_cpus_1.inst      1029760                       # Number of instructions bytes read from this memory
system.mem_ctrls1.bytes_inst_read::total      1726400                       # Number of instructions bytes read from this memory
system.mem_ctrls1.bytes_written::writebacks    316303808                       # Number of bytes written to this memory
system.mem_ctrls1.bytes_written::total      316303808                       # Number of bytes written to this memory
system.mem_ctrls1.num_reads::cpu.data               2                       # Number of read requests responded to by this memory
system.mem_ctrls1.num_reads::switch_cpus.inst        10885                       # Number of read requests responded to by this memory
system.mem_ctrls1.num_reads::switch_cpus.data      5688773                       # Number of read requests responded to by this memory
system.mem_ctrls1.num_reads::switch_cpus_1.inst        16090                       # Number of read requests responded to by this memory
system.mem_ctrls1.num_reads::switch_cpus_1.data      6166913                       # Number of read requests responded to by this memory
system.mem_ctrls1.num_reads::total           11882663                       # Number of read requests responded to by this memory
system.mem_ctrls1.num_writes::writebacks      4942247                       # Number of write requests responded to by this memory
system.mem_ctrls1.num_writes::total           4942247                       # Number of write requests responded to by this memory
system.mem_ctrls1.bw_read::cpu.data                26                       # Total read bandwidth from this memory (bytes/s)
system.mem_ctrls1.bw_read::switch_cpus.inst       141712                       # Total read bandwidth from this memory (bytes/s)
system.mem_ctrls1.bw_read::switch_cpus.data     74062310                       # Total read bandwidth from this memory (bytes/s)
system.mem_ctrls1.bw_read::switch_cpus_1.inst       209476                       # Total read bandwidth from this memory (bytes/s)
system.mem_ctrls1.bw_read::switch_cpus_1.data     80287230                       # Total read bandwidth from this memory (bytes/s)
system.mem_ctrls1.bw_read::total            154700754                       # Total read bandwidth from this memory (bytes/s)
system.mem_ctrls1.bw_inst_read::switch_cpus.inst       141712                       # Instruction read bandwidth from this memory (bytes/s)
system.mem_ctrls1.bw_inst_read::switch_cpus_1.inst       209476                       # Instruction read bandwidth from this memory (bytes/s)
system.mem_ctrls1.bw_inst_read::total          351188                       # Instruction read bandwidth from this memory (bytes/s)
system.mem_ctrls1.bw_write::writebacks       64343265                       # Write bandwidth from this memory (bytes/s)
system.mem_ctrls1.bw_write::total            64343265                       # Write bandwidth from this memory (bytes/s)
system.mem_ctrls1.bw_total::writebacks       64343265                       # Total bandwidth to/from this memory (bytes/s)
system.mem_ctrls1.bw_total::cpu.data               26                       # Total bandwidth to/from this memory (bytes/s)
system.mem_ctrls1.bw_total::switch_cpus.inst       141712                       # Total bandwidth to/from this memory (bytes/s)
system.mem_ctrls1.bw_total::switch_cpus.data     74062310                       # Total bandwidth to/from this memory (bytes/s)
system.mem_ctrls1.bw_total::switch_cpus_1.inst       209476                       # Total bandwidth to/from this memory (bytes/s)
system.mem_ctrls1.bw_total::switch_cpus_1.data     80287230                       # Total bandwidth to/from this memory (bytes/s)
system.mem_ctrls1.bw_total::total           219044019                       # Total bandwidth to/from this memory (bytes/s)
system.mem_ctrls1.readReqs                   11882663                       # Number of read requests accepted
system.mem_ctrls1.writeReqs                   4942247                       # Number of write requests accepted
system.mem_ctrls1.readBursts                 11882663                       # Number of DRAM read bursts, including those serviced by the write queue
system.mem_ctrls1.writeBursts                 4942247                       # Number of DRAM write bursts, including those merged in the write queue
system.mem_ctrls1.bytesReadDRAM             760163712                       # Total number of bytes read from DRAM
system.mem_ctrls1.bytesReadWrQ                 326720                       # Total number of bytes read from write queue
system.mem_ctrls1.bytesWritten              316302656                       # Total number of bytes written to DRAM
system.mem_ctrls1.bytesReadSys              760490432                       # Total read bytes from the system interface side
system.mem_ctrls1.bytesWrittenSys           316303808                       # Total written bytes from the system interface side
system.mem_ctrls1.servicedByWrQ                  5105                       # Number of DRAM read bursts serviced by the write queue
system.mem_ctrls1.mergedWrBursts                    0                       # Number of DRAM write bursts merged with an existing one
system.mem_ctrls1.neitherReadNorWriteReqs            0                       # Number of requests that are neither read nor write
system.mem_ctrls1.perBankRdBursts::0           732530                       # Per bank write bursts
system.mem_ctrls1.perBankRdBursts::1           745086                       # Per bank write bursts
system.mem_ctrls1.perBankRdBursts::2           745464                       # Per bank write bursts
system.mem_ctrls1.perBankRdBursts::3           734470                       # Per bank write bursts
system.mem_ctrls1.perBankRdBursts::4           721451                       # Per bank write bursts
system.mem_ctrls1.perBankRdBursts::5           748421                       # Per bank write bursts
system.mem_ctrls1.perBankRdBursts::6           767371                       # Per bank write bursts
system.mem_ctrls1.perBankRdBursts::7           757436                       # Per bank write bursts
system.mem_ctrls1.perBankRdBursts::8           779642                       # Per bank write bursts
system.mem_ctrls1.perBankRdBursts::9           758722                       # Per bank write bursts
system.mem_ctrls1.perBankRdBursts::10          724801                       # Per bank write bursts
system.mem_ctrls1.perBankRdBursts::11          729133                       # Per bank write bursts
system.mem_ctrls1.perBankRdBursts::12          720225                       # Per bank write bursts
system.mem_ctrls1.perBankRdBursts::13          737175                       # Per bank write bursts
system.mem_ctrls1.perBankRdBursts::14          744997                       # Per bank write bursts
system.mem_ctrls1.perBankRdBursts::15          730634                       # Per bank write bursts
system.mem_ctrls1.perBankWrBursts::0           304060                       # Per bank write bursts
system.mem_ctrls1.perBankWrBursts::1           305876                       # Per bank write bursts
system.mem_ctrls1.perBankWrBursts::2           308331                       # Per bank write bursts
system.mem_ctrls1.perBankWrBursts::3           302563                       # Per bank write bursts
system.mem_ctrls1.perBankWrBursts::4           303006                       # Per bank write bursts
system.mem_ctrls1.perBankWrBursts::5           310477                       # Per bank write bursts
system.mem_ctrls1.perBankWrBursts::6           320677                       # Per bank write bursts
system.mem_ctrls1.perBankWrBursts::7           313189                       # Per bank write bursts
system.mem_ctrls1.perBankWrBursts::8           325027                       # Per bank write bursts
system.mem_ctrls1.perBankWrBursts::9           308707                       # Per bank write bursts
system.mem_ctrls1.perBankWrBursts::10          308061                       # Per bank write bursts
system.mem_ctrls1.perBankWrBursts::11          307518                       # Per bank write bursts
system.mem_ctrls1.perBankWrBursts::12          298795                       # Per bank write bursts
system.mem_ctrls1.perBankWrBursts::13          306942                       # Per bank write bursts
system.mem_ctrls1.perBankWrBursts::14          312552                       # Per bank write bursts
system.mem_ctrls1.perBankWrBursts::15          306448                       # Per bank write bursts
system.mem_ctrls1.numRdRetry                        0                       # Number of times read queue was full causing retry
system.mem_ctrls1.numWrRetry                        0                       # Number of times write queue was full causing retry
system.mem_ctrls1.totGap                 4915880053812                       # Total gap between requests
system.mem_ctrls1.readPktSize::0                    0                       # Read request sizes (log2)
system.mem_ctrls1.readPktSize::1                    0                       # Read request sizes (log2)
system.mem_ctrls1.readPktSize::2                    0                       # Read request sizes (log2)
system.mem_ctrls1.readPktSize::3                    0                       # Read request sizes (log2)
system.mem_ctrls1.readPktSize::4                    0                       # Read request sizes (log2)
system.mem_ctrls1.readPktSize::5                    0                       # Read request sizes (log2)
system.mem_ctrls1.readPktSize::6             11882663                       # Read request sizes (log2)
system.mem_ctrls1.writePktSize::0                   0                       # Write request sizes (log2)
system.mem_ctrls1.writePktSize::1                   0                       # Write request sizes (log2)
system.mem_ctrls1.writePktSize::2                   0                       # Write request sizes (log2)
system.mem_ctrls1.writePktSize::3                   0                       # Write request sizes (log2)
system.mem_ctrls1.writePktSize::4                   0                       # Write request sizes (log2)
system.mem_ctrls1.writePktSize::5                   0                       # Write request sizes (log2)
system.mem_ctrls1.writePktSize::6             4942247                       # Write request sizes (log2)
system.mem_ctrls1.rdQLenPdf::0               10642950                       # What read queue length does an incoming req see
system.mem_ctrls1.rdQLenPdf::1                1093862                       # What read queue length does an incoming req see
system.mem_ctrls1.rdQLenPdf::2                 132156                       # What read queue length does an incoming req see
system.mem_ctrls1.rdQLenPdf::3                   8585                       # What read queue length does an incoming req see
system.mem_ctrls1.rdQLenPdf::4                      5                       # What read queue length does an incoming req see
system.mem_ctrls1.rdQLenPdf::5                      0                       # What read queue length does an incoming req see
system.mem_ctrls1.rdQLenPdf::6                      0                       # What read queue length does an incoming req see
system.mem_ctrls1.rdQLenPdf::7                      0                       # What read queue length does an incoming req see
system.mem_ctrls1.rdQLenPdf::8                      0                       # What read queue length does an incoming req see
system.mem_ctrls1.rdQLenPdf::9                      0                       # What read queue length does an incoming req see
system.mem_ctrls1.rdQLenPdf::10                     0                       # What read queue length does an incoming req see
system.mem_ctrls1.rdQLenPdf::11                     0                       # What read queue length does an incoming req see
system.mem_ctrls1.rdQLenPdf::12                     0                       # What read queue length does an incoming req see
system.mem_ctrls1.rdQLenPdf::13                     0                       # What read queue length does an incoming req see
system.mem_ctrls1.rdQLenPdf::14                     0                       # What read queue length does an incoming req see
system.mem_ctrls1.rdQLenPdf::15                     0                       # What read queue length does an incoming req see
system.mem_ctrls1.rdQLenPdf::16                     0                       # What read queue length does an incoming req see
system.mem_ctrls1.rdQLenPdf::17                     0                       # What read queue length does an incoming req see
system.mem_ctrls1.rdQLenPdf::18                     0                       # What read queue length does an incoming req see
system.mem_ctrls1.rdQLenPdf::19                     0                       # What read queue length does an incoming req see
system.mem_ctrls1.rdQLenPdf::20                     0                       # What read queue length does an incoming req see
system.mem_ctrls1.rdQLenPdf::21                     0                       # What read queue length does an incoming req see
system.mem_ctrls1.rdQLenPdf::22                     0                       # What read queue length does an incoming req see
system.mem_ctrls1.rdQLenPdf::23                     0                       # What read queue length does an incoming req see
system.mem_ctrls1.rdQLenPdf::24                     0                       # What read queue length does an incoming req see
system.mem_ctrls1.rdQLenPdf::25                     0                       # What read queue length does an incoming req see
system.mem_ctrls1.rdQLenPdf::26                     0                       # What read queue length does an incoming req see
system.mem_ctrls1.rdQLenPdf::27                     0                       # What read queue length does an incoming req see
system.mem_ctrls1.rdQLenPdf::28                     0                       # What read queue length does an incoming req see
system.mem_ctrls1.rdQLenPdf::29                     0                       # What read queue length does an incoming req see
system.mem_ctrls1.rdQLenPdf::30                     0                       # What read queue length does an incoming req see
system.mem_ctrls1.rdQLenPdf::31                     0                       # What read queue length does an incoming req see
system.mem_ctrls1.wrQLenPdf::0                      2                       # What write queue length does an incoming req see
system.mem_ctrls1.wrQLenPdf::1                      2                       # What write queue length does an incoming req see
system.mem_ctrls1.wrQLenPdf::2                      2                       # What write queue length does an incoming req see
system.mem_ctrls1.wrQLenPdf::3                      2                       # What write queue length does an incoming req see
system.mem_ctrls1.wrQLenPdf::4                      2                       # What write queue length does an incoming req see
system.mem_ctrls1.wrQLenPdf::5                      2                       # What write queue length does an incoming req see
system.mem_ctrls1.wrQLenPdf::6                      2                       # What write queue length does an incoming req see
system.mem_ctrls1.wrQLenPdf::7                      2                       # What write queue length does an incoming req see
system.mem_ctrls1.wrQLenPdf::8                      2                       # What write queue length does an incoming req see
system.mem_ctrls1.wrQLenPdf::9                      2                       # What write queue length does an incoming req see
system.mem_ctrls1.wrQLenPdf::10                     2                       # What write queue length does an incoming req see
system.mem_ctrls1.wrQLenPdf::11                     2                       # What write queue length does an incoming req see
system.mem_ctrls1.wrQLenPdf::12                     2                       # What write queue length does an incoming req see
system.mem_ctrls1.wrQLenPdf::13                     2                       # What write queue length does an incoming req see
system.mem_ctrls1.wrQLenPdf::14                     2                       # What write queue length does an incoming req see
system.mem_ctrls1.wrQLenPdf::15                231243                       # What write queue length does an incoming req see
system.mem_ctrls1.wrQLenPdf::16                242562                       # What write queue length does an incoming req see
system.mem_ctrls1.wrQLenPdf::17                275357                       # What write queue length does an incoming req see
system.mem_ctrls1.wrQLenPdf::18                278363                       # What write queue length does an incoming req see
system.mem_ctrls1.wrQLenPdf::19                278743                       # What write queue length does an incoming req see
system.mem_ctrls1.wrQLenPdf::20                278835                       # What write queue length does an incoming req see
system.mem_ctrls1.wrQLenPdf::21                278945                       # What write queue length does an incoming req see
system.mem_ctrls1.wrQLenPdf::22                279397                       # What write queue length does an incoming req see
system.mem_ctrls1.wrQLenPdf::23                281666                       # What write queue length does an incoming req see
system.mem_ctrls1.wrQLenPdf::24                279558                       # What write queue length does an incoming req see
system.mem_ctrls1.wrQLenPdf::25                278953                       # What write queue length does an incoming req see
system.mem_ctrls1.wrQLenPdf::26                278939                       # What write queue length does an incoming req see
system.mem_ctrls1.wrQLenPdf::27                278993                       # What write queue length does an incoming req see
system.mem_ctrls1.wrQLenPdf::28                279223                       # What write queue length does an incoming req see
system.mem_ctrls1.wrQLenPdf::29                280288                       # What write queue length does an incoming req see
system.mem_ctrls1.wrQLenPdf::30                284766                       # What write queue length does an incoming req see
system.mem_ctrls1.wrQLenPdf::31                278153                       # What write queue length does an incoming req see
system.mem_ctrls1.wrQLenPdf::32                278067                       # What write queue length does an incoming req see
system.mem_ctrls1.wrQLenPdf::33                   154                       # What write queue length does an incoming req see
system.mem_ctrls1.wrQLenPdf::34                    11                       # What write queue length does an incoming req see
system.mem_ctrls1.wrQLenPdf::35                     1                       # What write queue length does an incoming req see
system.mem_ctrls1.wrQLenPdf::36                     0                       # What write queue length does an incoming req see
system.mem_ctrls1.wrQLenPdf::37                     0                       # What write queue length does an incoming req see
system.mem_ctrls1.wrQLenPdf::38                     0                       # What write queue length does an incoming req see
system.mem_ctrls1.wrQLenPdf::39                     0                       # What write queue length does an incoming req see
system.mem_ctrls1.wrQLenPdf::40                     0                       # What write queue length does an incoming req see
system.mem_ctrls1.wrQLenPdf::41                     0                       # What write queue length does an incoming req see
system.mem_ctrls1.wrQLenPdf::42                     0                       # What write queue length does an incoming req see
system.mem_ctrls1.wrQLenPdf::43                     0                       # What write queue length does an incoming req see
system.mem_ctrls1.wrQLenPdf::44                     0                       # What write queue length does an incoming req see
system.mem_ctrls1.wrQLenPdf::45                     0                       # What write queue length does an incoming req see
system.mem_ctrls1.wrQLenPdf::46                     0                       # What write queue length does an incoming req see
system.mem_ctrls1.wrQLenPdf::47                     0                       # What write queue length does an incoming req see
system.mem_ctrls1.wrQLenPdf::48                     0                       # What write queue length does an incoming req see
system.mem_ctrls1.wrQLenPdf::49                     0                       # What write queue length does an incoming req see
system.mem_ctrls1.wrQLenPdf::50                     0                       # What write queue length does an incoming req see
system.mem_ctrls1.wrQLenPdf::51                     0                       # What write queue length does an incoming req see
system.mem_ctrls1.wrQLenPdf::52                     0                       # What write queue length does an incoming req see
system.mem_ctrls1.wrQLenPdf::53                     0                       # What write queue length does an incoming req see
system.mem_ctrls1.wrQLenPdf::54                     0                       # What write queue length does an incoming req see
system.mem_ctrls1.wrQLenPdf::55                     0                       # What write queue length does an incoming req see
system.mem_ctrls1.wrQLenPdf::56                     0                       # What write queue length does an incoming req see
system.mem_ctrls1.wrQLenPdf::57                     0                       # What write queue length does an incoming req see
system.mem_ctrls1.wrQLenPdf::58                     0                       # What write queue length does an incoming req see
system.mem_ctrls1.wrQLenPdf::59                     0                       # What write queue length does an incoming req see
system.mem_ctrls1.wrQLenPdf::60                     0                       # What write queue length does an incoming req see
system.mem_ctrls1.wrQLenPdf::61                     0                       # What write queue length does an incoming req see
system.mem_ctrls1.wrQLenPdf::62                     0                       # What write queue length does an incoming req see
system.mem_ctrls1.wrQLenPdf::63                     0                       # What write queue length does an incoming req see
system.mem_ctrls1.bytesPerActivate::samples     10568226                       # Bytes accessed per row activation
system.mem_ctrls1.bytesPerActivate::mean   101.858727                       # Bytes accessed per row activation
system.mem_ctrls1.bytesPerActivate::gmean    83.789313                       # Bytes accessed per row activation
system.mem_ctrls1.bytesPerActivate::stdev    94.337083                       # Bytes accessed per row activation
system.mem_ctrls1.bytesPerActivate::0-127      7940485     75.14%     75.14% # Bytes accessed per row activation
system.mem_ctrls1.bytesPerActivate::128-255      1844085     17.45%     92.58% # Bytes accessed per row activation
system.mem_ctrls1.bytesPerActivate::256-383       440021      4.16%     96.75% # Bytes accessed per row activation
system.mem_ctrls1.bytesPerActivate::384-511       188044      1.78%     98.53% # Bytes accessed per row activation
system.mem_ctrls1.bytesPerActivate::512-639        92686      0.88%     99.40% # Bytes accessed per row activation
system.mem_ctrls1.bytesPerActivate::640-767        37510      0.35%     99.76% # Bytes accessed per row activation
system.mem_ctrls1.bytesPerActivate::768-895        13156      0.12%     99.88% # Bytes accessed per row activation
system.mem_ctrls1.bytesPerActivate::896-1023         6508      0.06%     99.95% # Bytes accessed per row activation
system.mem_ctrls1.bytesPerActivate::1024-1151         5731      0.05%    100.00% # Bytes accessed per row activation
system.mem_ctrls1.bytesPerActivate::total     10568226                       # Bytes accessed per row activation
system.mem_ctrls1.rdPerTurnAround::samples       278056                       # Reads before turning the bus around for writes
system.mem_ctrls1.rdPerTurnAround::mean     42.716356                       # Reads before turning the bus around for writes
system.mem_ctrls1.rdPerTurnAround::stdev    47.922875                       # Reads before turning the bus around for writes
system.mem_ctrls1.rdPerTurnAround::0-1023       278055    100.00%    100.00% # Reads before turning the bus around for writes
system.mem_ctrls1.rdPerTurnAround::23552-24575            1      0.00%    100.00% # Reads before turning the bus around for writes
system.mem_ctrls1.rdPerTurnAround::total       278056                       # Reads before turning the bus around for writes
system.mem_ctrls1.wrPerTurnAround::samples       278056                       # Writes before turning the bus around for reads
system.mem_ctrls1.wrPerTurnAround::mean     17.774222                       # Writes before turning the bus around for reads
system.mem_ctrls1.wrPerTurnAround::gmean    17.757839                       # Writes before turning the bus around for reads
system.mem_ctrls1.wrPerTurnAround::stdev     0.747788                       # Writes before turning the bus around for reads
system.mem_ctrls1.wrPerTurnAround::16           34918     12.56%     12.56% # Writes before turning the bus around for reads
system.mem_ctrls1.wrPerTurnAround::17           10120      3.64%     16.20% # Writes before turning the bus around for reads
system.mem_ctrls1.wrPerTurnAround::18          217094     78.08%     94.27% # Writes before turning the bus around for reads
system.mem_ctrls1.wrPerTurnAround::19           14752      5.31%     99.58% # Writes before turning the bus around for reads
system.mem_ctrls1.wrPerTurnAround::20            1096      0.39%     99.97% # Writes before turning the bus around for reads
system.mem_ctrls1.wrPerTurnAround::21              74      0.03%    100.00% # Writes before turning the bus around for reads
system.mem_ctrls1.wrPerTurnAround::22               1      0.00%    100.00% # Writes before turning the bus around for reads
system.mem_ctrls1.wrPerTurnAround::25               1      0.00%    100.00% # Writes before turning the bus around for reads
system.mem_ctrls1.wrPerTurnAround::total       278056                       # Writes before turning the bus around for reads
system.mem_ctrls1.totQLat                258470861500                       # Total ticks spent queuing
system.mem_ctrls1.totMemAccLat           481175074000                       # Total ticks spent from burst creation until serviced by the DRAM
system.mem_ctrls1.totBusLat               59387790000                       # Total ticks spent in databus transfers
system.mem_ctrls1.avgQLat                    21761.28                       # Average queueing delay per DRAM burst
system.mem_ctrls1.avgBusLat                   5000.00                       # Average bus latency per DRAM burst
system.mem_ctrls1.avgMemAccLat               40511.28                       # Average memory access latency per DRAM burst
system.mem_ctrls1.avgRdBW                      154.63                       # Average DRAM read bandwidth in MiByte/s
system.mem_ctrls1.avgWrBW                       64.34                       # Average achieved write bandwidth in MiByte/s
system.mem_ctrls1.avgRdBWSys                   154.70                       # Average system read bandwidth in MiByte/s
system.mem_ctrls1.avgWrBWSys                    64.34                       # Average system write bandwidth in MiByte/s
system.mem_ctrls1.peakBW                     12800.00                       # Theoretical peak bandwidth in MiByte/s
system.mem_ctrls1.busUtil                        1.71                       # Data bus utilization in percentage
system.mem_ctrls1.busUtilRead                    1.21                       # Data bus utilization in percentage for reads
system.mem_ctrls1.busUtilWrite                   0.50                       # Data bus utilization in percentage for writes
system.mem_ctrls1.avgRdQLen                      1.08                       # Average read queue length when enqueuing
system.mem_ctrls1.avgWrQLen                     24.58                       # Average write queue length when enqueuing
system.mem_ctrls1.readRowHits                 6165805                       # Number of row buffer hits during reads
system.mem_ctrls1.writeRowHits                  85752                       # Number of row buffer hits during writes
system.mem_ctrls1.readRowHitRate                51.91                       # Row buffer hit rate for reads
system.mem_ctrls1.writeRowHitRate                1.74                       # Row buffer hit rate for writes
system.mem_ctrls1.avgGap                    292178.68                       # Average gap between requests
system.mem_ctrls1.pageHitRate                   37.17                       # Row buffer hit rate, read and write combined
system.mem_ctrls1_0.actEnergy             37741240320                       # Energy for activate commands per rank (pJ)
system.mem_ctrls1_0.preEnergy             20059929780                       # Energy for precharge commands per rank (pJ)
system.mem_ctrls1_0.readEnergy            42498915060                       # Energy for read commands per rank (pJ)
system.mem_ctrls1_0.writeEnergy           12883894380                       # Energy for write commands per rank (pJ)
system.mem_ctrls1_0.refreshEnergy        389529943920.000061                       # Energy for refresh commands per rank (pJ)
system.mem_ctrls1_0.actBackEnergy        277348730970                       # Energy for active background per rank (pJ)
system.mem_ctrls1_0.preBackEnergy          9733302240                       # Energy for precharge background per rank (pJ)
system.mem_ctrls1_0.actPowerDownEnergy   1617279502200                       # Energy for active power-down per rank (pJ)
system.mem_ctrls1_0.prePowerDownEnergy   250968135840                       # Energy for precharge power-down per rank (pJ)
system.mem_ctrls1_0.selfRefreshEnergy     27390102495                       # Energy for self refresh per rank (pJ)
system.mem_ctrls1_0.totalEnergy          2685489319185                       # Total energy per rank (pJ)
system.mem_ctrls1_0.averagePower           546.288558                       # Core power per rank (mW)
system.mem_ctrls1_0.totalIdleTime        4282200099513                       # Total Idle time Per DRAM Rank
system.mem_ctrls1_0.memoryStateTime::IDLE   7249647752                       # Time in different power states
system.mem_ctrls1_0.memoryStateTime::REF 164864838000                       # Time in different power states
system.mem_ctrls1_0.memoryStateTime::SREF  81960350057                       # Time in different power states
system.mem_ctrls1_0.memoryStateTime::PRE_PDN 653565226883                       # Time in different power states
system.mem_ctrls1_0.memoryStateTime::ACT 461565607946                       # Time in different power states
system.mem_ctrls1_0.memoryStateTime::ACT_PDN 3546674905318                       # Time in different power states
system.mem_ctrls1_1.actEnergy             37715921880                       # Energy for activate commands per rank (pJ)
system.mem_ctrls1_1.preEnergy             20046487890                       # Energy for precharge commands per rank (pJ)
system.mem_ctrls1_1.readEnergy            42306849060                       # Energy for read commands per rank (pJ)
system.mem_ctrls1_1.writeEnergy           12914541000                       # Energy for write commands per rank (pJ)
system.mem_ctrls1_1.refreshEnergy        389612305680.000061                       # Energy for refresh commands per rank (pJ)
system.mem_ctrls1_1.actBackEnergy        278120790270                       # Energy for active background per rank (pJ)
system.mem_ctrls1_1.preBackEnergy          9784953120                       # Energy for precharge background per rank (pJ)
system.mem_ctrls1_1.actPowerDownEnergy   1611311217450                       # Energy for active power-down per rank (pJ)
system.mem_ctrls1_1.prePowerDownEnergy   253701015360                       # Energy for precharge power-down per rank (pJ)
system.mem_ctrls1_1.selfRefreshEnergy     28779865515                       # Energy for self refresh per rank (pJ)
system.mem_ctrls1_1.totalEnergy          2684354251995                       # Total energy per rank (pJ)
system.mem_ctrls1_1.averagePower           546.057657                       # Core power per rank (mW)
system.mem_ctrls1_1.totalIdleTime        4280345043133                       # Total Idle time Per DRAM Rank
system.mem_ctrls1_1.memoryStateTime::IDLE   7437313402                       # Time in different power states
system.mem_ctrls1_1.memoryStateTime::REF 164904190000                       # Time in different power states
system.mem_ctrls1_1.memoryStateTime::SREF  86093845499                       # Time in different power states
system.mem_ctrls1_1.memoryStateTime::PRE_PDN 660678224359                       # Time in different power states
system.mem_ctrls1_1.memoryStateTime::ACT 463192833714                       # Time in different power states
system.mem_ctrls1_1.memoryStateTime::ACT_PDN 3533574168982                       # Time in different power states
system.pwrStateResidencyTicks::UNDEFINED 131868877100688                       # Cumulative time (in ticks) in various power states
system.cpu.branchPred.lookups                       3                       # Number of BP lookups
system.cpu.branchPred.condPredicted                 3                       # Number of conditional branches predicted
system.cpu.branchPred.condIncorrect                 1                       # Number of conditional branches incorrect
system.cpu.branchPred.BTBLookups                    0                       # Number of BTB lookups
system.cpu.branchPred.BTBHits                       0                       # Number of BTB hits
system.cpu.branchPred.BTBCorrect                    0                       # Number of correct BTB predictions (this stat may not work properly.
system.cpu.branchPred.BTBHitPct                   nan                       # BTB Hit Percentage
system.cpu.branchPred.usedRAS                       0                       # Number of times the RAS was used to get a target.
system.cpu.branchPred.RASInCorrect                  0                       # Number of incorrect RAS predictions.
system.cpu.branchPred.indirectLookups               0                       # Number of indirect predictor lookups.
system.cpu.branchPred.indirectHits                  0                       # Number of indirect target hits.
system.cpu.branchPred.indirectMisses                0                       # Number of indirect misses.
system.cpu.branchPredindirectMispredicted            0                       # Number of mispredicted indirect branches.
system.cpu_voltage_domain.voltage                   1                       # Voltage in Volts
system.cpu_clk_domain.clock                       333                       # Clock period in ticks
system.cpu.dtb.fetch_hits                           0                       # ITB hits
system.cpu.dtb.fetch_misses                         0                       # ITB misses
system.cpu.dtb.fetch_acv                            0                       # ITB acv
system.cpu.dtb.fetch_accesses                       0                       # ITB accesses
system.cpu.dtb.read_hits                            2                       # DTB read hits
system.cpu.dtb.read_misses                          0                       # DTB read misses
system.cpu.dtb.read_acv                             0                       # DTB read access violations
system.cpu.dtb.read_accesses                        2                       # DTB read accesses
system.cpu.dtb.write_hits                           0                       # DTB write hits
system.cpu.dtb.write_misses                         0                       # DTB write misses
system.cpu.dtb.write_acv                            0                       # DTB write access violations
system.cpu.dtb.write_accesses                       0                       # DTB write accesses
system.cpu.dtb.data_hits                            2                       # DTB hits
system.cpu.dtb.data_misses                          0                       # DTB misses
system.cpu.dtb.data_acv                             0                       # DTB access violations
system.cpu.dtb.data_accesses                        2                       # DTB accesses
system.cpu.itb.fetch_hits                           3                       # ITB hits
system.cpu.itb.fetch_misses                         0                       # ITB misses
system.cpu.itb.fetch_acv                            0                       # ITB acv
system.cpu.itb.fetch_accesses                       3                       # ITB accesses
system.cpu.itb.read_hits                            0                       # DTB read hits
system.cpu.itb.read_misses                          0                       # DTB read misses
system.cpu.itb.read_acv                             0                       # DTB read access violations
system.cpu.itb.read_accesses                        0                       # DTB read accesses
system.cpu.itb.write_hits                           0                       # DTB write hits
system.cpu.itb.write_misses                         0                       # DTB write misses
system.cpu.itb.write_acv                            0                       # DTB write access violations
system.cpu.itb.write_accesses                       0                       # DTB write accesses
system.cpu.itb.data_hits                            0                       # DTB hits
system.cpu.itb.data_misses                          0                       # DTB misses
system.cpu.itb.data_acv                             0                       # DTB access violations
system.cpu.itb.data_accesses                        0                       # DTB accesses
system.cpu.workload.num_syscalls                    2                       # Number of system calls
system.cpu.pwrStateResidencyTicks::ON    4915880575956                       # Cumulative time (in ticks) in various power states
system.cpu.numCycles                              493                       # number of cpu cycles simulated
system.cpu.numWorkItemsStarted                      0                       # number of work items this cpu started
system.cpu.numWorkItemsCompleted                    0                       # number of work items this cpu completed
system.cpu.fetch.icacheStallCycles                 19                       # Number of cycles fetch is stalled on an Icache miss
system.cpu.fetch.Insts                              9                       # Number of instructions fetch has processed
system.cpu.fetch.Branches                           3                       # Number of branches that fetch encountered
system.cpu.fetch.Cycles                             2                       # Number of cycles fetch has run and was not squashing or blocked
system.cpu.fetch.SquashCycles                       5                       # Number of cycles fetch has spent squashing
system.cpu.fetch.PendingDrainCycles                 3                       # Number of cycles fetch has spent waiting on pipes to drain
system.cpu.fetch.CacheLines                         3                       # Number of cache lines fetched
system.cpu.fetch.IcacheSquashes                     2                       # Number of outstanding Icache misses that were squashed
system.cpu.fetch.rateDist::samples                 26                       # Number of instructions fetched each cycle (Total)
system.cpu.fetch.rateDist::mean              0.346154                       # Number of instructions fetched each cycle (Total)
system.cpu.fetch.rateDist::stdev             1.573336                       # Number of instructions fetched each cycle (Total)
system.cpu.fetch.rateDist::underflows               0      0.00%      0.00% # Number of instructions fetched each cycle (Total)
system.cpu.fetch.rateDist::0                       24     92.31%     92.31% # Number of instructions fetched each cycle (Total)
system.cpu.fetch.rateDist::1                        1      3.85%     96.15% # Number of instructions fetched each cycle (Total)
system.cpu.fetch.rateDist::2                        0      0.00%     96.15% # Number of instructions fetched each cycle (Total)
system.cpu.fetch.rateDist::3                        0      0.00%     96.15% # Number of instructions fetched each cycle (Total)
system.cpu.fetch.rateDist::4                        0      0.00%     96.15% # Number of instructions fetched each cycle (Total)
system.cpu.fetch.rateDist::5                        0      0.00%     96.15% # Number of instructions fetched each cycle (Total)
system.cpu.fetch.rateDist::6                        0      0.00%     96.15% # Number of instructions fetched each cycle (Total)
system.cpu.fetch.rateDist::7                        0      0.00%     96.15% # Number of instructions fetched each cycle (Total)
system.cpu.fetch.rateDist::8                        1      3.85%    100.00% # Number of instructions fetched each cycle (Total)
system.cpu.fetch.rateDist::overflows                0      0.00%    100.00% # Number of instructions fetched each cycle (Total)
system.cpu.fetch.rateDist::min_value                0                       # Number of instructions fetched each cycle (Total)
system.cpu.fetch.rateDist::max_value                8                       # Number of instructions fetched each cycle (Total)
system.cpu.fetch.rateDist::total                   26                       # Number of instructions fetched each cycle (Total)
system.cpu.fetch.branchRate                  0.006085                       # Number of branch fetches per cycle
[...]
system.switch_cpus_1.iq.int_inst_queue_wakeup_accesses   1606588209                       # Number of integer instruction queue wakeup accesses
system.switch_cpus_1.iq.fp_inst_queue_reads    349801845                       # Number of floating instruction queue reads
system.switch_cpus_1.iq.fp_inst_queue_writes    556515449                       # Number of floating instruction queue writes
system.switch_cpus_1.iq.fp_inst_queue_wakeup_accesses    144352920                       # Number of floating instruction queue wakeup accesses
system.switch_cpus_1.iq.int_alu_accesses   1758619316                       # Number of integer alu accesses
system.switch_cpus_1.iq.fp_alu_accesses     175878338                       # Number of floating point alu accesses
system.switch_cpus_1.iew.lsq.thread0.forwLoads     46947802                       # Number of loads that had data forwarded from stores
system.switch_cpus_1.iew.lsq.thread0.invAddrLoads            0                       # Number of loads ignored due to an invalid address
system.switch_cpus_1.iew.lsq.thread0.squashedLoads    338753943                       # Number of loads squashed
system.switch_cpus_1.iew.lsq.thread0.ignoredResponses       149373                       # Number of memory responses ignored because the instruction is squashed
system.switch_cpus_1.iew.lsq.thread0.memOrderViolation        60066                       # Number of memory ordering violations
system.switch_cpus_1.iew.lsq.thread0.squashedStores    148113745                       # Number of stores squashed
system.switch_cpus_1.iew.lsq.thread0.invAddrSwpfs            0                       # Number of software prefetches ignored due to an invalid address
system.switch_cpus_1.iew.lsq.thread0.blockedLoads            0                       # Number of blocked loads due to partial load-store forwarding
system.switch_cpus_1.iew.lsq.thread0.rescheduledLoads         3331                       # Number of loads that were rescheduled
system.switch_cpus_1.iew.lsq.thread0.cacheBlocked     13645567                       # Number of times an access to memory failed due to the cache being blocked
system.switch_cpus_1.iew.iewIdleCycles              0                       # Number of cycles IEW is idle
system.switch_cpus_1.iew.iewSquashCycles     19208268                       # Number of cycles IEW is squashing
system.switch_cpus_1.iew.iewBlockCycles    1239818101                       # Number of cycles IEW is blocking
system.switch_cpus_1.iew.iewUnblockCycles    724471078                       # Number of cycles IEW is unblocking
system.switch_cpus_1.iew.iewDispatchedInsts   2435792215                       # Number of instructions dispatched to IQ
system.switch_cpus_1.iew.iewDispSquashedInsts       756053                       # Number of squashed instructions skipped by dispatch
system.switch_cpus_1.iew.iewDispLoadInsts    577385781                       # Number of dispatched load instructions
system.switch_cpus_1.iew.iewDispStoreInsts    294028557                       # Number of dispatched store instructions
system.switch_cpus_1.iew.iewDispNonSpecInsts      2694003                       # Number of dispatched non-speculative instructions
system.switch_cpus_1.iew.iewIQFullEvents      6138345                       # Number of times the IQ has become full, causing a stall
system.switch_cpus_1.iew.iewLSQFullEvents    716938782                       # Number of times the LSQ has become full, causing a stall
system.switch_cpus_1.iew.memOrderViolationEvents        60066                       # Number of memory order violations
system.switch_cpus_1.iew.predictedTakenIncorrect      3991418                       # Number of branches that were predicted taken incorrectly
system.switch_cpus_1.iew.predictedNotTakenIncorrect      5716120                       # Number of branches that were predicted not taken incorrectly
system.switch_cpus_1.iew.branchMispredicts      9707538                       # Number of branch mispredicts detected at execute
system.switch_cpus_1.iew.iewExecutedInsts   1878144727                       # Number of executed instructions
system.switch_cpus_1.iew.iewExecLoadInsts    511161932                       # Number of load instructions executed
system.switch_cpus_1.iew.iewExecSquashedInsts     21122901                       # Number of squashed instructions skipped in execute
system.switch_cpus_1.iew.exec_swp                   0                       # number of swp insts executed
system.switch_cpus_1.iew.exec_nop           117593013                       # number of nop insts executed
system.switch_cpus_1.iew.exec_refs          772625415                       # number of memory reference insts executed
system.switch_cpus_1.iew.exec_branches      364755498                       # Number of branches executed
system.switch_cpus_1.iew.exec_stores        261463483                       # Number of stores executed
system.switch_cpus_1.iew.exec_rate           0.368203                       # Inst execution rate
system.switch_cpus_1.iew.wb_sent           1850866209                       # cumulative count of insts sent to commit
system.switch_cpus_1.iew.wb_count          1750941129                       # cumulative count of insts written-back
system.switch_cpus_1.iew.wb_producers       884481919                       # num instructions producing a value
system.switch_cpus_1.iew.wb_consumers      1295728624                       # num instructions consuming a value
system.switch_cpus_1.iew.wb_rate             0.343266                       # insts written-back per cycle
system.switch_cpus_1.iew.wb_fanout           0.682614                       # average fanout of values written-back
system.switch_cpus_1.commit.commitSquashedInsts   1150564032                       # The number of squashed insts skipped by commit
system.switch_cpus_1.commit.commitNonSpecStalls      3363580                       # The number of times commit has been forced to stall to communicate backwards
system.switch_cpus_1.commit.branchMispredicts      7410926                       # The number of times a branch was mispredicted
system.switch_cpus_1.commit.committed_per_cycle::samples   4919785000                       # Number of insts commited each cycle
system.switch_cpus_1.commit.committed_per_cycle::mean     0.217126                       # Number of insts commited each cycle
system.switch_cpus_1.commit.committed_per_cycle::stdev     1.136449                       # Number of insts commited each cycle
system.switch_cpus_1.commit.committed_per_cycle::underflows            0      0.00%      0.00% # Number of insts commited each cycle
system.switch_cpus_1.commit.committed_per_cycle::0   4648587655     94.49%     94.49% # Number of insts commited each cycle
system.switch_cpus_1.commit.committed_per_cycle::1     99523308      2.02%     96.51% # Number of insts commited each cycle
system.switch_cpus_1.commit.committed_per_cycle::2     30157793      0.61%     97.12% # Number of insts commited each cycle
system.switch_cpus_1.commit.committed_per_cycle::3     18555854      0.38%     97.50% # Number of insts commited each cycle
system.switch_cpus_1.commit.committed_per_cycle::4     16517449      0.34%     97.84% # Number of insts commited each cycle
system.switch_cpus_1.commit.committed_per_cycle::5     12761044      0.26%     98.10% # Number of insts commited each cycle
system.switch_cpus_1.commit.committed_per_cycle::6      9590655      0.19%     98.29% # Number of insts commited each cycle
system.switch_cpus_1.commit.committed_per_cycle::7      7442860      0.15%     98.44% # Number of insts commited each cycle
system.switch_cpus_1.commit.committed_per_cycle::8     76648382      1.56%    100.00% # Number of insts commited each cycle
system.switch_cpus_1.commit.committed_per_cycle::overflows            0      0.00%    100.00% # Number of insts commited each cycle
system.switch_cpus_1.commit.committed_per_cycle::min_value            0                       # Number of insts commited each cycle
system.switch_cpus_1.commit.committed_per_cycle::max_value            8                       # Number of insts commited each cycle
system.switch_cpus_1.commit.committed_per_cycle::total   4919785000                       # Number of insts commited each cycle
system.switch_cpus_1.commit.committedInsts   1068212478                       # Number of instructions committed
system.switch_cpus_1.commit.committedOps   1068212478                       # Number of ops (including micro ops) committed
system.switch_cpus_1.commit.swp_count               0                       # Number of s/w prefetches committed
system.switch_cpus_1.commit.refs            384546642                       # Number of memory references committed
system.switch_cpus_1.commit.loads           238631831                       # Number of loads committed
system.switch_cpus_1.commit.membars           1681789                       # Number of memory barriers committed
system.switch_cpus_1.commit.branches        214623210                       # Number of branches committed
system.switch_cpus_1.commit.fp_insts         96546625                       # Number of committed floating point instructions.
system.switch_cpus_1.commit.int_insts       925707265                       # Number of committed integer instructions.
system.switch_cpus_1.commit.function_calls     31504738                       # Number of function calls committed.
system.switch_cpus_1.commit.op_class_0::No_OpClass     69090040      6.47%      6.47% # Class of committed instruction
system.switch_cpus_1.commit.op_class_0::IntAlu    554848205     51.94%     58.41% # Class of committed instruction
system.switch_cpus_1.commit.op_class_0::IntMult       439340      0.04%     58.45% # Class of committed instruction
system.switch_cpus_1.commit.op_class_0::IntDiv            0      0.00%     58.45% # Class of committed instruction
system.switch_cpus_1.commit.op_class_0::FloatAdd     31535281      2.95%     61.40% # Class of committed instruction
system.switch_cpus_1.commit.op_class_0::FloatCmp     23564610      2.21%     63.61% # Class of committed instruction
system.switch_cpus_1.commit.op_class_0::FloatCvt      1798819      0.17%     63.78% # Class of committed instruction
system.switch_cpus_1.commit.op_class_0::FloatMult       268620      0.03%     63.80% # Class of committed instruction
system.switch_cpus_1.commit.op_class_0::FloatMultAcc            0      0.00%     63.80% # Class of committed instruction
system.switch_cpus_1.commit.op_class_0::FloatDiv       439041      0.04%     63.84% # Class of committed instruction
system.switch_cpus_1.commit.op_class_0::FloatMisc            0      0.00%     63.84% # Class of committed instruction
system.switch_cpus_1.commit.op_class_0::FloatSqrt           91      0.00%     63.84% # Class of committed instruction
system.switch_cpus_1.commit.op_class_0::SimdAdd            0      0.00%     63.84% # Class of committed instruction
system.switch_cpus_1.commit.op_class_0::SimdAddAcc            0      0.00%     63.84% # Class of committed instruction
system.switch_cpus_1.commit.op_class_0::SimdAlu            0      0.00%     63.84% # Class of committed instruction
system.switch_cpus_1.commit.op_class_0::SimdCmp            0      0.00%     63.84% # Class of committed instruction
system.switch_cpus_1.commit.op_class_0::SimdCvt            0      0.00%     63.84% # Class of committed instruction
system.switch_cpus_1.commit.op_class_0::SimdMisc            0      0.00%     63.84% # Class of committed instruction
system.switch_cpus_1.commit.op_class_0::SimdMult            0      0.00%     63.84% # Class of committed instruction
system.switch_cpus_1.commit.op_class_0::SimdMultAcc            0      0.00%     63.84% # Class of committed instruction
system.switch_cpus_1.commit.op_class_0::SimdShift            0      0.00%     63.84% # Class of committed instruction
system.switch_cpus_1.commit.op_class_0::SimdShiftAcc            0      0.00%     63.84% # Class of committed instruction
system.switch_cpus_1.commit.op_class_0::SimdSqrt            0      0.00%     63.84% # Class of committed instruction
system.switch_cpus_1.commit.op_class_0::SimdFloatAdd            0      0.00%     63.84% # Class of committed instruction
system.switch_cpus_1.commit.op_class_0::SimdFloatAlu            0      0.00%     63.84% # Class of committed instruction
system.switch_cpus_1.commit.op_class_0::SimdFloatCmp            0      0.00%     63.84% # Class of committed instruction
system.switch_cpus_1.commit.op_class_0::SimdFloatCvt            0      0.00%     63.84% # Class of committed instruction
system.switch_cpus_1.commit.op_class_0::SimdFloatDiv            0      0.00%     63.84% # Class of committed instruction
system.switch_cpus_1.commit.op_class_0::SimdFloatMisc            0      0.00%     63.84% # Class of committed instruction
system.switch_cpus_1.commit.op_class_0::SimdFloatMult            0      0.00%     63.84% # Class of committed instruction
system.switch_cpus_1.commit.op_class_0::SimdFloatMultAcc            0      0.00%     63.84% # Class of committed instruction
system.switch_cpus_1.commit.op_class_0::SimdFloatSqrt            0      0.00%     63.84% # Class of committed instruction
system.switch_cpus_1.commit.op_class_0::MemRead    209928607     19.65%     83.50% # Class of committed instruction
system.switch_cpus_1.commit.op_class_0::MemWrite    137359661     12.86%     96.35% # Class of committed instruction
system.switch_cpus_1.commit.op_class_0::FloatMemRead     30385013      2.84%     99.20% # Class of committed instruction
system.switch_cpus_1.commit.op_class_0::FloatMemWrite      8555150      0.80%    100.00% # Class of committed instruction
system.switch_cpus_1.commit.op_class_0::IprAccess            0      0.00%    100.00% # Class of committed instruction
system.switch_cpus_1.commit.op_class_0::InstPrefetch            0      0.00%    100.00% # Class of committed instruction
system.switch_cpus_1.commit.op_class_0::total   1068212478                       # Class of committed instruction
system.switch_cpus_1.commit.bw_lim_events     76648382                       # number cycles where commit BW limit reached
system.switch_cpus_1.rob.rob_reads         6909163193                       # The number of ROB reads
system.switch_cpus_1.rob.rob_writes        4597034017                       # The number of ROB writes
system.switch_cpus_1.timesIdled                157497                       # Number of times that the entire CPU went into an idle state and unscheduled itself
system.switch_cpus_1.idleCycles              21851727                       # Total number of cycles that the CPU has spent unscheduled due to idling
system.switch_cpus_1.committedInsts        1000000004                       # Number of Instructions Simulated
system.switch_cpus_1.committedOps          1000000004                       # Number of Ops (including micro ops) Simulated
system.switch_cpus_1.cpi                     5.100835                       # CPI: Cycles Per Instruction
system.switch_cpus_1.cpi_total               5.100835                       # CPI: Total CPI of All Threads
system.switch_cpus_1.ipc                     0.196046                       # IPC: Instructions Per Cycle
system.switch_cpus_1.ipc_total               0.196046                       # IPC: Total IPC of All Threads
system.switch_cpus_1.int_regfile_reads     2378929912                       # number of integer regfile reads
system.switch_cpus_1.int_regfile_writes    1097113545                       # number of integer regfile writes
system.switch_cpus_1.fp_regfile_reads       132309236                       # number of floating regfile reads
system.switch_cpus_1.fp_regfile_writes       99404544                       # number of floating regfile writes
system.switch_cpus_1.misc_regfile_reads       4667723                       # number of misc regfile reads
system.switch_cpus_1.misc_regfile_writes      3802360                       # number of misc regfile writes
system.tol3bus.snoop_filter.tot_requests     76621516                       # Total number of requests made to the snoop filter.
system.tol3bus.snoop_filter.hit_single_requests     38313234                       # Number of requests hitting in the snoop filter with a single holder of the requested data.
system.tol3bus.snoop_filter.hit_multi_requests            0                       # Number of requests hitting in the snoop filter with multiple (>1) holders of the requested data.
system.tol3bus.snoop_filter.tot_snoops          34770                       # Total number of snoops made to the snoop filter.
system.tol3bus.snoop_filter.hit_single_snoops        34770                       # Number of snoops hitting in the snoop filter with a single holder of the requested data.
system.tol3bus.snoop_filter.hit_multi_snoops            0                       # Number of snoops hitting in the snoop filter with multiple (>1) holders of the requested data.
system.tol3bus.pwrStateResidencyTicks::UNDEFINED 131868877100688                       # Cumulative time (in ticks) in various power states
system.tol3bus.trans_dist::ReadResp          32835493                       # Transaction distribution
system.tol3bus.trans_dist::WritebackDirty     29009696                       # Transaction distribution
system.tol3bus.trans_dist::CleanEvict        32979559                       # Transaction distribution
system.tol3bus.trans_dist::UpgradeReq            3313                       # Transaction distribution
system.tol3bus.trans_dist::UpgradeResp           3313                       # Transaction distribution
system.tol3bus.trans_dist::ReadExReq          5472789                       # Transaction distribution
system.tol3bus.trans_dist::ReadExResp         5472789                       # Transaction distribution
system.tol3bus.trans_dist::ReadSharedReq     32835493                       # Transaction distribution
system.tol3bus.pkt_count_system.cpu.l2.mem_side::system.l3.cpu_side    114933111                       # Packet count per connected master and slave (bytes)
system.tol3bus.pkt_size_system.cpu.l2.mem_side::system.l3.cpu_side   3675188160                       # Cumulative packet size per connected master and slave (bytes)
system.tol3bus.snoops                        23679334                       # Total snoops (count)
system.tol3bus.snoopTraffic                 633162432                       # Total snoop traffic (bytes)
system.tol3bus.snoop_fanout::samples         61990929                       # Request fanout histogram
system.tol3bus.snoop_fanout::mean            0.000561                       # Request fanout histogram
system.tol3bus.snoop_fanout::stdev           0.023676                       # Request fanout histogram
system.tol3bus.snoop_fanout::underflows             0      0.00%      0.00% # Request fanout histogram
system.tol3bus.snoop_fanout::0               61956159     99.94%     99.94% # Request fanout histogram
system.tol3bus.snoop_fanout::1                  34770      0.06%    100.00% # Request fanout histogram
system.tol3bus.snoop_fanout::overflows              0      0.00%    100.00% # Request fanout histogram
system.tol3bus.snoop_fanout::min_value              0                       # Request fanout histogram
system.tol3bus.snoop_fanout::max_value              1                       # Request fanout histogram
system.tol3bus.snoop_fanout::total           61990929                       # Request fanout histogram
system.tol3bus.reqLayer0.occupancy        31880770317                       # Layer occupancy (ticks)
system.tol3bus.reqLayer0.utilization              0.6                       # Layer utilization (%)
system.tol3bus.respLayer0.occupancy       25514419041                       # Layer occupancy (ticks)
system.tol3bus.respLayer0.utilization             0.5                       # Layer utilization (%)

---------- End Simulation Statistics   ----------
