
---------- Begin Simulation Statistics ----------
sim_seconds                                  2.424007                       # Number of seconds simulated
sim_ticks                                2424006678222                       # Number of ticks simulated
final_tick                               72453979259568                       # Number of ticks from beginning of simulation (restored from checkpoints and never reset)
sim_freq                                 1000000000000                       # Frequency of simulated ticks
host_inst_rate                                 255136                       # Simulator instruction rate (inst/s)
host_op_rate                                   255136                       # Simulator op (including micro ops) rate (op/s)
host_tick_rate                              515375186                       # Simulator tick rate (ticks/s)
host_mem_usage                                2503460                       # Number of bytes of host memory used
host_seconds                                  4703.38                       # Real time elapsed on the host
sim_insts                                  1200000011                       # Number of instructions simulated
sim_ops                                    1200000011                       # Number of ops (including micro ops) simulated
system.voltage_domain.voltage                       1                       # Voltage in Volts
system.clk_domain.clock                          1000                       # Clock period in ticks
system.mem_ctrls0.pwrStateResidencyTicks::UNDEFINED 72453979259568                       # Cumulative time (in ticks) in various power states
system.mem_ctrls0.bytes_read::cpu.inst             64                       # Number of bytes read from this memory
system.mem_ctrls0.bytes_read::cpu.data            128                       # Number of bytes read from this memory
system.mem_ctrls0.bytes_read::switch_cpus.inst       136704                       # Number of bytes read from this memory
system.mem_ctrls0.bytes_read::switch_cpus.data    382482432                       # Number of bytes read from this memory
system.mem_ctrls0.bytes_read::switch_cpus_1.inst        39232                       # Number of bytes read from this memory
system.mem_ctrls0.bytes_read::switch_cpus_1.data     79104384                       # Number of bytes read from this memory
system.mem_ctrls0.bytes_read::total         461762944                       # Number of bytes read from this memory
system.mem_ctrls0.bytes_inst_read::cpu.inst           64                       # Number of instructions bytes read from this memory
system.mem_ctrls0.bytes_inst_read::switch_cpus.inst       136704                       # Number of instructions bytes read from this memory
system.mem_ctrls0.bytes_inst_read::switch_cpus_1.inst        39232                       # Number of instructions bytes read from this memory
system.mem_ctrls0.bytes_inst_read::total       176000                       # Number of instructions bytes read from this memory
system.mem_ctrls0.bytes_written::writebacks    163737536                       # Number of bytes written to this memory
system.mem_ctrls0.bytes_written::total      163737536                       # Number of bytes written to this memory
system.mem_ctrls0.num_reads::cpu.inst               1                       # Number of read requests responded to by this memory
system.mem_ctrls0.num_reads::cpu.data               2                       # Number of read requests responded to by this memory
system.mem_ctrls0.num_reads::switch_cpus.inst         2136                       # Number of read requests responded to by this memory
system.mem_ctrls0.num_reads::switch_cpus.data      5976288                       # Number of read requests responded to by this memory
system.mem_ctrls0.num_reads::switch_cpus_1.inst          613                       # Number of read requests responded to by this memory
system.mem_ctrls0.num_reads::switch_cpus_1.data      1236006                       # Number of read requests responded to by this memory
system.mem_ctrls0.num_reads::total            7215046                       # Number of read requests responded to by this memory
system.mem_ctrls0.num_writes::writebacks      2558399                       # Number of write requests responded to by this memory
system.mem_ctrls0.num_writes::total           2558399                       # Number of write requests responded to by this memory
system.mem_ctrls0.bw_read::cpu.inst                26                       # Total read bandwidth from this memory (bytes/s)
system.mem_ctrls0.bw_read::cpu.data                53                       # Total read bandwidth from this memory (bytes/s)
system.mem_ctrls0.bw_read::switch_cpus.inst        56396                       # Total read bandwidth from this memory (bytes/s)
system.mem_ctrls0.bw_read::switch_cpus.data    157789347                       # Total read bandwidth from this memory (bytes/s)
system.mem_ctrls0.bw_read::switch_cpus_1.inst        16185                       # Total read bandwidth from this memory (bytes/s)
system.mem_ctrls0.bw_read::switch_cpus_1.data     32633732                       # Total read bandwidth from this memory (bytes/s)
system.mem_ctrls0.bw_read::total            190495739                       # Total read bandwidth from this memory (bytes/s)
system.mem_ctrls0.bw_inst_read::cpu.inst           26                       # Instruction read bandwidth from this memory (bytes/s)
system.mem_ctrls0.bw_inst_read::switch_cpus.inst        56396                       # Instruction read bandwidth from this memory (bytes/s)
system.mem_ctrls0.bw_inst_read::switch_cpus_1.inst        16185                       # Instruction read bandwidth from this memory (bytes/s)
system.mem_ctrls0.bw_inst_read::total           72607                       # Instruction read bandwidth from this memory (bytes/s)
system.mem_ctrls0.bw_write::writebacks       67548302                       # Write bandwidth from this memory (bytes/s)
system.mem_ctrls0.bw_write::total            67548302                       # Write bandwidth from this memory (bytes/s)
system.mem_ctrls0.bw_total::writebacks       67548302                       # Total bandwidth to/from this memory (bytes/s)
system.mem_ctrls0.bw_total::cpu.inst               26                       # Total bandwidth to/from this memory (bytes/s)
system.mem_ctrls0.bw_total::cpu.data               53                       # Total bandwidth to/from this memory (bytes/s)
system.mem_ctrls0.bw_total::switch_cpus.inst        56396                       # Total bandwidth to/from this memory (bytes/s)
system.mem_ctrls0.bw_total::switch_cpus.data    157789347                       # Total bandwidth to/from this memory (bytes/s)
system.mem_ctrls0.bw_total::switch_cpus_1.inst        16185                       # Total bandwidth to/from this memory (bytes/s)
system.mem_ctrls0.bw_total::switch_cpus_1.data     32633732                       # Total bandwidth to/from this memory (bytes/s)
system.mem_ctrls0.bw_total::total           258044042                       # Total bandwidth to/from this memory (bytes/s)
system.mem_ctrls0.readReqs                    7215046                       # Number of read requests accepted
system.mem_ctrls0.writeReqs                   2558399                       # Number of write requests accepted
system.mem_ctrls0.readBursts                  7215046                       # Number of DRAM read bursts, including those serviced by the write queue
system.mem_ctrls0.writeBursts                 2558399                       # Number of DRAM write bursts, including those merged in the write queue
system.mem_ctrls0.bytesReadDRAM             461332992                       # Total number of bytes read from DRAM
system.mem_ctrls0.bytesReadWrQ                 429952                       # Total number of bytes read from write queue
system.mem_ctrls0.bytesWritten              163736128                       # Total number of bytes written to DRAM
system.mem_ctrls0.bytesReadSys              461762944                       # Total read bytes from the system interface side
system.mem_ctrls0.bytesWrittenSys           163737536                       # Total written bytes from the system interface side
system.mem_ctrls0.servicedByWrQ                  6718                       # Number of DRAM read bursts serviced by the write queue
system.mem_ctrls0.mergedWrBursts                    0                       # Number of DRAM write bursts merged with an existing one
system.mem_ctrls0.neitherReadNorWriteReqs            0                       # Number of requests that are neither read nor write
system.mem_ctrls0.perBankRdBursts::0           477830                       # Per bank write bursts
system.mem_ctrls0.perBankRdBursts::1           457833                       # Per bank write bursts
system.mem_ctrls0.perBankRdBursts::2           450523                       # Per bank write bursts
system.mem_ctrls0.perBankRdBursts::3           451434                       # Per bank write bursts
system.mem_ctrls0.perBankRdBursts::4           449765                       # Per bank write bursts
system.mem_ctrls0.perBankRdBursts::5           463771                       # Per bank write bursts
system.mem_ctrls0.perBankRdBursts::6           443668                       # Per bank write bursts
system.mem_ctrls0.perBankRdBursts::7           453294                       # Per bank write bursts
system.mem_ctrls0.perBankRdBursts::8           460252                       # Per bank write bursts
system.mem_ctrls0.perBankRdBursts::9           448935                       # Per bank write bursts
system.mem_ctrls0.perBankRdBursts::10          436950                       # Per bank write bursts
system.mem_ctrls0.perBankRdBursts::11          445265                       # Per bank write bursts
system.mem_ctrls0.perBankRdBursts::12          438218                       # Per bank write bursts
system.mem_ctrls0.perBankRdBursts::13          437231                       # Per bank write bursts
system.mem_ctrls0.perBankRdBursts::14          441363                       # Per bank write bursts
system.mem_ctrls0.perBankRdBursts::15          451996                       # Per bank write bursts
system.mem_ctrls0.perBankWrBursts::0           170347                       # Per bank write bursts
system.mem_ctrls0.perBankWrBursts::1           159481                       # Per bank write bursts
system.mem_ctrls0.perBankWrBursts::2           163288                       # Per bank write bursts
system.mem_ctrls0.perBankWrBursts::3           162360                       # Per bank write bursts
system.mem_ctrls0.perBankWrBursts::4           160996                       # Per bank write bursts
system.mem_ctrls0.perBankWrBursts::5           161742                       # Per bank write bursts
system.mem_ctrls0.perBankWrBursts::6           155540                       # Per bank write bursts
system.mem_ctrls0.perBankWrBursts::7           156475                       # Per bank write bursts
system.mem_ctrls0.perBankWrBursts::8           157074                       # Per bank write bursts
system.mem_ctrls0.perBankWrBursts::9           154240                       # Per bank write bursts
system.mem_ctrls0.perBankWrBursts::10          153741                       # Per bank write bursts
system.mem_ctrls0.perBankWrBursts::11          154504                       # Per bank write bursts
system.mem_ctrls0.perBankWrBursts::12          153071                       # Per bank write bursts
system.mem_ctrls0.perBankWrBursts::13          159521                       # Per bank write bursts
system.mem_ctrls0.perBankWrBursts::14          167081                       # Per bank write bursts
system.mem_ctrls0.perBankWrBursts::15          168916                       # Per bank write bursts
system.mem_ctrls0.numRdRetry                        0                       # Number of times read queue was full causing retry
system.mem_ctrls0.numWrRetry                        0                       # Number of times write queue was full causing retry
system.mem_ctrls0.totGap                 2424006189711                       # Total gap between requests
system.mem_ctrls0.readPktSize::0                    0                       # Read request sizes (log2)
system.mem_ctrls0.readPktSize::1                    0                       # Read request sizes (log2)
system.mem_ctrls0.readPktSize::2                    0                       # Read request sizes (log2)
system.mem_ctrls0.readPktSize::3                    0                       # Read request sizes (log2)
system.mem_ctrls0.readPktSize::4                    0                       # Read request sizes (log2)
system.mem_ctrls0.readPktSize::5                    0                       # Read request sizes (log2)
system.mem_ctrls0.readPktSize::6              7215046                       # Read request sizes (log2)
system.mem_ctrls0.writePktSize::0                   0                       # Write request sizes (log2)
system.mem_ctrls0.writePktSize::1                   0                       # Write request sizes (log2)
system.mem_ctrls0.writePktSize::2                   0                       # Write request sizes (log2)
system.mem_ctrls0.writePktSize::3                   0                       # Write request sizes (log2)
system.mem_ctrls0.writePktSize::4                   0                       # Write request sizes (log2)
system.mem_ctrls0.writePktSize::5                   0                       # Write request sizes (log2)
system.mem_ctrls0.writePktSize::6             2558399                       # Write request sizes (log2)
system.mem_ctrls0.rdQLenPdf::0                6845086                       # What read queue length does an incoming req see
system.mem_ctrls0.rdQLenPdf::1                 308219                       # What read queue length does an incoming req see
system.mem_ctrls0.rdQLenPdf::2                  49288                       # What read queue length does an incoming req see
system.mem_ctrls0.rdQLenPdf::3                   5734                       # What read queue length does an incoming req see
system.mem_ctrls0.rdQLenPdf::4                      1                       # What read queue length does an incoming req see
system.mem_ctrls0.rdQLenPdf::5                      0                       # What read queue length does an incoming req see
system.mem_ctrls0.rdQLenPdf::6                      0                       # What read queue length does an incoming req see
system.mem_ctrls0.rdQLenPdf::7                      0                       # What read queue length does an incoming req see
system.mem_ctrls0.rdQLenPdf::8                      0                       # What read queue length does an incoming req see
system.mem_ctrls0.rdQLenPdf::9                      0                       # What read queue length does an incoming req see
system.mem_ctrls0.rdQLenPdf::10                     0                       # What read queue length does an incoming req see
system.mem_ctrls0.rdQLenPdf::11                     0                       # What read queue length does an incoming req see
system.mem_ctrls0.rdQLenPdf::12                     0                       # What read queue length does an incoming req see
system.mem_ctrls0.rdQLenPdf::13                     0                       # What read queue length does an incoming req see
system.mem_ctrls0.rdQLenPdf::14                     0                       # What read queue length does an incoming req see
system.mem_ctrls0.rdQLenPdf::15                     0                       # What read queue length does an incoming req see
system.mem_ctrls0.rdQLenPdf::16                     0                       # What read queue length does an incoming req see
system.mem_ctrls0.rdQLenPdf::17                     0                       # What read queue length does an incoming req see
system.mem_ctrls0.rdQLenPdf::18                     0                       # What read queue length does an incoming req see
system.mem_ctrls0.rdQLenPdf::19                     0                       # What read queue length does an incoming req see
system.mem_ctrls0.rdQLenPdf::20                     0                       # What read queue length does an incoming req see
system.mem_ctrls0.rdQLenPdf::21                     0                       # What read queue length does an incoming req see
system.mem_ctrls0.rdQLenPdf::22                     0                       # What read queue length does an incoming req see
system.mem_ctrls0.rdQLenPdf::23                     0                       # What read queue length does an incoming req see
system.mem_ctrls0.rdQLenPdf::24                     0                       # What read queue length does an incoming req see
system.mem_ctrls0.rdQLenPdf::25                     0                       # What read queue length does an incoming req see
system.mem_ctrls0.rdQLenPdf::26                     0                       # What read queue length does an incoming req see
system.mem_ctrls0.rdQLenPdf::27                     0                       # What read queue length does an incoming req see
system.mem_ctrls0.rdQLenPdf::28                     0                       # What read queue length does an incoming req see
system.mem_ctrls0.rdQLenPdf::29                     0                       # What read queue length does an incoming req see
system.mem_ctrls0.rdQLenPdf::30                     0                       # What read queue length does an incoming req see
system.mem_ctrls0.rdQLenPdf::31                     0                       # What read queue length does an incoming req see
system.mem_ctrls0.wrQLenPdf::0                      2                       # What write queue length does an incoming req see
system.mem_ctrls0.wrQLenPdf::1                      2                       # What write queue length does an incoming req see
system.mem_ctrls0.wrQLenPdf::2                      2                       # What write queue length does an incoming req see
system.mem_ctrls0.wrQLenPdf::3                      2                       # What write queue length does an incoming req see
system.mem_ctrls0.wrQLenPdf::4                      2                       # What write queue length does an incoming req see
system.mem_ctrls0.wrQLenPdf::5                      2                       # What write queue length does an incoming req see
system.mem_ctrls0.wrQLenPdf::6                      2                       # What write queue length does an incoming req see
system.mem_ctrls0.wrQLenPdf::7                      2                       # What write queue length does an incoming req see
system.mem_ctrls0.wrQLenPdf::8                      2                       # What write queue length does an incoming req see
system.mem_ctrls0.wrQLenPdf::9                      2                       # What write queue length does an incoming req see
system.mem_ctrls0.wrQLenPdf::10                     2                       # What write queue length does an incoming req see
system.mem_ctrls0.wrQLenPdf::11                     2                       # What write queue length does an incoming req see
system.mem_ctrls0.wrQLenPdf::12                     2                       # What write queue length does an incoming req see
system.mem_ctrls0.wrQLenPdf::13                     2                       # What write queue length does an incoming req see
system.mem_ctrls0.wrQLenPdf::14                     2                       # What write queue length does an incoming req see
system.mem_ctrls0.wrQLenPdf::15                 83677                       # What write queue length does an incoming req see
system.mem_ctrls0.wrQLenPdf::16                 88049                       # What write queue length does an incoming req see
system.mem_ctrls0.wrQLenPdf::17                141796                       # What write queue length does an incoming req see
system.mem_ctrls0.wrQLenPdf::18                148180                       # What write queue length does an incoming req see
system.mem_ctrls0.wrQLenPdf::19                149423                       # What write queue length does an incoming req see
system.mem_ctrls0.wrQLenPdf::20                149696                       # What write queue length does an incoming req see
system.mem_ctrls0.wrQLenPdf::21                149689                       # What write queue length does an incoming req see
system.mem_ctrls0.wrQLenPdf::22                149533                       # What write queue length does an incoming req see
system.mem_ctrls0.wrQLenPdf::23                149543                       # What write queue length does an incoming req see
system.mem_ctrls0.wrQLenPdf::24                149490                       # What write queue length does an incoming req see
system.mem_ctrls0.wrQLenPdf::25                149494                       # What write queue length does an incoming req see
system.mem_ctrls0.wrQLenPdf::26                149602                       # What write queue length does an incoming req see
system.mem_ctrls0.wrQLenPdf::27                150202                       # What write queue length does an incoming req see
system.mem_ctrls0.wrQLenPdf::28                150662                       # What write queue length does an incoming req see
system.mem_ctrls0.wrQLenPdf::29                151247                       # What write queue length does an incoming req see
system.mem_ctrls0.wrQLenPdf::30                150490                       # What write queue length does an incoming req see
system.mem_ctrls0.wrQLenPdf::31                148763                       # What write queue length does an incoming req see
system.mem_ctrls0.wrQLenPdf::32                148605                       # What write queue length does an incoming req see
system.mem_ctrls0.wrQLenPdf::33                   147                       # What write queue length does an incoming req see
system.mem_ctrls0.wrQLenPdf::34                    51                       # What write queue length does an incoming req see
system.mem_ctrls0.wrQLenPdf::35                    19                       # What write queue length does an incoming req see
system.mem_ctrls0.wrQLenPdf::36                     8                       # What write queue length does an incoming req see
system.mem_ctrls0.wrQLenPdf::37                     3                       # What write queue length does an incoming req see
system.mem_ctrls0.wrQLenPdf::38                     0                       # What write queue length does an incoming req see
system.mem_ctrls0.wrQLenPdf::39                     0                       # What write queue length does an incoming req see
system.mem_ctrls0.wrQLenPdf::40                     0                       # What write queue length does an incoming req see
system.mem_ctrls0.wrQLenPdf::41                     0                       # What write queue length does an incoming req see
system.mem_ctrls0.wrQLenPdf::42                     0                       # What write queue length does an incoming req see
system.mem_ctrls0.wrQLenPdf::43                     0                       # What write queue length does an incoming req see
system.mem_ctrls0.wrQLenPdf::44                     0                       # What write queue length does an incoming req see
system.mem_ctrls0.wrQLenPdf::45                     0                       # What write queue length does an incoming req see
system.mem_ctrls0.wrQLenPdf::46                     0                       # What write queue length does an incoming req see
system.mem_ctrls0.wrQLenPdf::47                     0                       # What write queue length does an incoming req see
system.mem_ctrls0.wrQLenPdf::48                     0                       # What write queue length does an incoming req see
system.mem_ctrls0.wrQLenPdf::49                     0                       # What write queue length does an incoming req see
system.mem_ctrls0.wrQLenPdf::50                     0                       # What write queue length does an incoming req see
system.mem_ctrls0.wrQLenPdf::51                     0                       # What write queue length does an incoming req see
system.mem_ctrls0.wrQLenPdf::52                     0                       # What write queue length does an incoming req see
system.mem_ctrls0.wrQLenPdf::53                     0                       # What write queue length does an incoming req see
system.mem_ctrls0.wrQLenPdf::54                     0                       # What write queue length does an incoming req see
system.mem_ctrls0.wrQLenPdf::55                     0                       # What write queue length does an incoming req see
system.mem_ctrls0.wrQLenPdf::56                     0                       # What write queue length does an incoming req see
system.mem_ctrls0.wrQLenPdf::57                     0                       # What write queue length does an incoming req see
system.mem_ctrls0.wrQLenPdf::58                     0                       # What write queue length does an incoming req see
system.mem_ctrls0.wrQLenPdf::59                     0                       # What write queue length does an incoming req see
system.mem_ctrls0.wrQLenPdf::60                     0                       # What write queue length does an incoming req see
system.mem_ctrls0.wrQLenPdf::61                     0                       # What write queue length does an incoming req see
system.mem_ctrls0.wrQLenPdf::62                     0                       # What write queue length does an incoming req see
system.mem_ctrls0.wrQLenPdf::63                     0                       # What write queue length does an incoming req see
system.mem_ctrls0.bytesPerActivate::samples      4372387                       # Bytes accessed per row activation
system.mem_ctrls0.bytesPerActivate::mean   142.958237                       # Bytes accessed per row activation
system.mem_ctrls0.bytesPerActivate::gmean    98.793467                       # Bytes accessed per row activation
system.mem_ctrls0.bytesPerActivate::stdev   184.978240                       # Bytes accessed per row activation
system.mem_ctrls0.bytesPerActivate::0-127      2852930     65.25%     65.25% # Bytes accessed per row activation
system.mem_ctrls0.bytesPerActivate::128-255       941362     21.53%     86.78% # Bytes accessed per row activation
system.mem_ctrls0.bytesPerActivate::256-383       223734      5.12%     91.90% # Bytes accessed per row activation
system.mem_ctrls0.bytesPerActivate::384-511       107542      2.46%     94.36% # Bytes accessed per row activation
system.mem_ctrls0.bytesPerActivate::512-639        56895      1.30%     95.66% # Bytes accessed per row activation
system.mem_ctrls0.bytesPerActivate::640-767        39520      0.90%     96.56% # Bytes accessed per row activation
system.mem_ctrls0.bytesPerActivate::768-895        35071      0.80%     97.36% # Bytes accessed per row activation
system.mem_ctrls0.bytesPerActivate::896-1023        33280      0.76%     98.12% # Bytes accessed per row activation
system.mem_ctrls0.bytesPerActivate::1024-1151        82053      1.88%    100.00% # Bytes accessed per row activation
system.mem_ctrls0.bytesPerActivate::total      4372387                       # Bytes accessed per row activation
system.mem_ctrls0.rdPerTurnAround::samples       148532                       # Reads before turning the bus around for writes
system.mem_ctrls0.rdPerTurnAround::mean     48.530290                       # Reads before turning the bus around for writes
system.mem_ctrls0.rdPerTurnAround::stdev   106.577576                       # Reads before turning the bus around for writes
system.mem_ctrls0.rdPerTurnAround::0-1023       148344     99.87%     99.87% # Reads before turning the bus around for writes
system.mem_ctrls0.rdPerTurnAround::1024-2047          176      0.12%     99.99% # Reads before turning the bus around for writes
system.mem_ctrls0.rdPerTurnAround::2048-3071           10      0.01%    100.00% # Reads before turning the bus around for writes
system.mem_ctrls0.rdPerTurnAround::3072-4095            1      0.00%    100.00% # Reads before turning the bus around for writes
system.mem_ctrls0.rdPerTurnAround::30720-31743            1      0.00%    100.00% # Reads before turning the bus around for writes
system.mem_ctrls0.rdPerTurnAround::total       148532                       # Reads before turning the bus around for writes
system.mem_ctrls0.wrPerTurnAround::samples       148532                       # Writes before turning the bus around for reads
system.mem_ctrls0.wrPerTurnAround::mean     17.224416                       # Writes before turning the bus around for reads
system.mem_ctrls0.wrPerTurnAround::gmean    17.190609                       # Writes before turning the bus around for reads
system.mem_ctrls0.wrPerTurnAround::stdev     1.078309                       # Writes before turning the bus around for reads
system.mem_ctrls0.wrPerTurnAround::16           61205     41.21%     41.21% # Writes before turning the bus around for reads
system.mem_ctrls0.wrPerTurnAround::17            3064      2.06%     43.27% # Writes before turning the bus around for reads
system.mem_ctrls0.wrPerTurnAround::18           75483     50.82%     94.09% # Writes before turning the bus around for reads
system.mem_ctrls0.wrPerTurnAround::19            7611      5.12%     99.21% # Writes before turning the bus around for reads
system.mem_ctrls0.wrPerTurnAround::20             925      0.62%     99.84% # Writes before turning the bus around for reads
system.mem_ctrls0.wrPerTurnAround::21             188      0.13%     99.96% # Writes before turning the bus around for reads
system.mem_ctrls0.wrPerTurnAround::22              40      0.03%     99.99% # Writes before turning the bus around for reads
system.mem_ctrls0.wrPerTurnAround::23              10      0.01%    100.00% # Writes before turning the bus around for reads
system.mem_ctrls0.wrPerTurnAround::24               4      0.00%    100.00% # Writes before turning the bus around for reads
system.mem_ctrls0.wrPerTurnAround::25               1      0.00%    100.00% # Writes before turning the bus around for reads
system.mem_ctrls0.wrPerTurnAround::27               1      0.00%    100.00% # Writes before turning the bus around for reads
system.mem_ctrls0.wrPerTurnAround::total       148532                       # Writes before turning the bus around for reads
system.mem_ctrls0.totQLat                138583621164                       # Total ticks spent queuing
system.mem_ctrls0.totMemAccLat           273739771164                       # Total ticks spent from burst creation until serviced by the DRAM
system.mem_ctrls0.totBusLat               36041640000                       # Total ticks spent in databus transfers
system.mem_ctrls0.avgQLat                    19225.49                       # Average queueing delay per DRAM burst
system.mem_ctrls0.avgBusLat                   5000.00                       # Average bus latency per DRAM burst
system.mem_ctrls0.avgMemAccLat               37975.49                       # Average memory access latency per DRAM burst
system.mem_ctrls0.avgRdBW                      190.32                       # Average DRAM read bandwidth in MiByte/s
system.mem_ctrls0.avgWrBW                       67.55                       # Average achieved write bandwidth in MiByte/s
system.mem_ctrls0.avgRdBWSys                   190.50                       # Average system read bandwidth in MiByte/s
system.mem_ctrls0.avgWrBWSys                    67.55                       # Average system write bandwidth in MiByte/s
system.mem_ctrls0.peakBW                     12800.00                       # Theoretical peak bandwidth in MiByte/s
system.mem_ctrls0.busUtil                        2.01                       # Data bus utilization in percentage
system.mem_ctrls0.busUtilRead                    1.49                       # Data bus utilization in percentage for reads
system.mem_ctrls0.busUtilWrite                   0.53                       # Data bus utilization in percentage for writes
system.mem_ctrls0.avgRdQLen                      1.02                       # Average read queue length when enqueuing
system.mem_ctrls0.avgWrQLen                     24.78                       # Average write queue length when enqueuing
system.mem_ctrls0.readRowHits                 4723784                       # Number of row buffer hits during reads
system.mem_ctrls0.writeRowHits                 670529                       # Number of row buffer hits during writes
system.mem_ctrls0.readRowHitRate                65.53                       # Row buffer hit rate for reads
system.mem_ctrls0.writeRowHitRate               26.21                       # Row buffer hit rate for writes
system.mem_ctrls0.avgGap                    248019.63                       # Average gap between requests
system.mem_ctrls0.pageHitRate                   55.23                       # Row buffer hit rate, read and write combined
system.mem_ctrls0_0.actEnergy             15692527620                       # Energy for activate commands per rank (pJ)
system.mem_ctrls0_0.preEnergy              8340764850                       # Energy for precharge commands per rank (pJ)
system.mem_ctrls0_0.readEnergy            26047562520                       # Energy for read commands per rank (pJ)
system.mem_ctrls0_0.writeEnergy            6734995380                       # Energy for write commands per rank (pJ)
system.mem_ctrls0_0.refreshEnergy        185398165680.000031                       # Energy for refresh commands per rank (pJ)
system.mem_ctrls0_0.actBackEnergy        139089506460                       # Energy for active background per rank (pJ)
system.mem_ctrls0_0.preBackEnergy          5241061920                       # Energy for precharge background per rank (pJ)
system.mem_ctrls0_0.actPowerDownEnergy   765946641660                       # Energy for active power-down per rank (pJ)
system.mem_ctrls0_0.prePowerDownEnergy   103773751200                       # Energy for precharge power-down per rank (pJ)
system.mem_ctrls0_0.selfRefreshEnergy     43400371665                       # Energy for self refresh per rank (pJ)
system.mem_ctrls0_0.totalEnergy          1299728135835                       # Total energy per rank (pJ)
system.mem_ctrls0_0.averagePower           536.189992                       # Core power per rank (mW)
system.mem_ctrls0_0.totalIdleTime        2105198013106                       # Total Idle time Per DRAM Rank
system.mem_ctrls0_0.memoryStateTime::IDLE   4756920530                       # Time in different power states
system.mem_ctrls0_0.memoryStateTime::REF  78500482000                       # Time in different power states
system.mem_ctrls0_0.memoryStateTime::SREF 155245997862                       # Time in different power states
system.mem_ctrls0_0.memoryStateTime::PRE_PDN 270242672676                       # Time in different power states
system.mem_ctrls0_0.memoryStateTime::ACT 235550920467                       # Time in different power states
system.mem_ctrls0_0.memoryStateTime::ACT_PDN 1679709684687                       # Time in different power states
system.mem_ctrls0_1.actEnergy             15526351260                       # Energy for activate commands per rank (pJ)
system.mem_ctrls0_1.preEnergy              8252443815                       # Energy for precharge commands per rank (pJ)
system.mem_ctrls0_1.readEnergy            25419899400                       # Energy for read commands per rank (pJ)
system.mem_ctrls0_1.writeEnergy            6619732560                       # Energy for write commands per rank (pJ)
system.mem_ctrls0_1.refreshEnergy        185698110000.000031                       # Energy for refresh commands per rank (pJ)
system.mem_ctrls0_1.actBackEnergy        139531639500                       # Energy for active background per rank (pJ)
system.mem_ctrls0_1.preBackEnergy          5344152480                       # Energy for precharge background per rank (pJ)
system.mem_ctrls0_1.actPowerDownEnergy   759900932100                       # Energy for active power-down per rank (pJ)
system.mem_ctrls0_1.prePowerDownEnergy   106219347360                       # Energy for precharge power-down per rank (pJ)
system.mem_ctrls0_1.selfRefreshEnergy     45476575230                       # Energy for self refresh per rank (pJ)
system.mem_ctrls0_1.totalEnergy          1298047335525                       # Total energy per rank (pJ)
system.mem_ctrls0_1.averagePower           535.496597                       # Core power per rank (mW)
system.mem_ctrls0_1.totalIdleTime        2103976122075                       # Total Idle time Per DRAM Rank
system.mem_ctrls0_1.memoryStateTime::IDLE   5104079609                       # Time in different power states
system.mem_ctrls0_1.memoryStateTime::REF  78634592000                       # Time in different power states
system.mem_ctrls0_1.memoryStateTime::SREF 160907581533                       # Time in different power states
system.mem_ctrls0_1.memoryStateTime::PRE_PDN 276611830037                       # Time in different power states
system.mem_ctrls0_1.memoryStateTime::ACT 236291236059                       # Time in different power states
system.mem_ctrls0_1.memoryStateTime::ACT_PDN 1666457358984                       # Time in different power states
system.mem_ctrls1.pwrStateResidencyTicks::UNDEFINED 72453979259568                       # Cumulative time (in ticks) in various power states
system.mem_ctrls1.bytes_read::cpu.inst             64                       # Number of bytes read from this memory
system.mem_ctrls1.bytes_read::switch_cpus.inst       126016                       # Number of bytes read from this memory
system.mem_ctrls1.bytes_read::switch_cpus.data    382755392                       # Number of bytes read from this memory
system.mem_ctrls1.bytes_read::switch_cpus_1.inst        38592                       # Number of bytes read from this memory
system.mem_ctrls1.bytes_read::switch_cpus_1.data     79283776                       # Number of bytes read from this memory
system.mem_ctrls1.bytes_read::total         462203840                       # Number of bytes read from this memory
system.mem_ctrls1.bytes_inst_read::cpu.inst           64                       # Number of instructions bytes read from this memory
system.mem_ctrls1.bytes_inst_read::switch_cpus.inst       126016                       # Number of instructions bytes read from this memory
system.mem_ctrls1.bytes_inst_read::switch_cpus_1.inst        38592                       # Number of instructions bytes read from this memory
system.mem_ctrls1.bytes_inst_read::total       164672                       # Number of instructions bytes read from this memory
system.mem_ctrls1.bytes_written::writebacks    163891328                       # Number of bytes written to this memory
system.mem_ctrls1.bytes_written::total      163891328                       # Number of bytes written to this memory
system.mem_ctrls1.num_reads::cpu.inst               1                       # Number of read requests responded to by this memory
system.mem_ctrls1.num_reads::switch_cpus.inst         1969                       # Number of read requests responded to by this memory
system.mem_ctrls1.num_reads::switch_cpus.data      5980553                       # Number of read requests responded to by this memory
system.mem_ctrls1.num_reads::switch_cpus_1.inst          603                       # Number of read requests responded to by this memory
system.mem_ctrls1.num_reads::switch_cpus_1.data      1238809                       # Number of read requests responded to by this memory
system.mem_ctrls1.num_reads::total            7221935                       # Number of read requests responded to by this memory
system.mem_ctrls1.num_writes::writebacks      2560802                       # Number of write requests responded to by this memory
system.mem_ctrls1.num_writes::total           2560802                       # Number of write requests responded to by this memory
system.mem_ctrls1.bw_read::cpu.inst                26                       # Total read bandwidth from this memory (bytes/s)
system.mem_ctrls1.bw_read::switch_cpus.inst        51987                       # Total read bandwidth from this memory (bytes/s)
system.mem_ctrls1.bw_read::switch_cpus.data    157901954                       # Total read bandwidth from this memory (bytes/s)
system.mem_ctrls1.bw_read::switch_cpus_1.inst        15921                       # Total read bandwidth from this memory (bytes/s)
system.mem_ctrls1.bw_read::switch_cpus_1.data     32707738                       # Total read bandwidth from this memory (bytes/s)
system.mem_ctrls1.bw_read::total            190677626                       # Total read bandwidth from this memory (bytes/s)
system.mem_ctrls1.bw_inst_read::cpu.inst           26                       # Instruction read bandwidth from this memory (bytes/s)
system.mem_ctrls1.bw_inst_read::switch_cpus.inst        51987                       # Instruction read bandwidth from this memory (bytes/s)
system.mem_ctrls1.bw_inst_read::switch_cpus_1.inst        15921                       # Instruction read bandwidth from this memory (bytes/s)
system.mem_ctrls1.bw_inst_read::total           67934                       # Instruction read bandwidth from this memory (bytes/s)
system.mem_ctrls1.bw_write::writebacks       67611748                       # Write bandwidth from this memory (bytes/s)
system.mem_ctrls1.bw_write::total            67611748                       # Write bandwidth from this memory (bytes/s)
system.mem_ctrls1.bw_total::writebacks       67611748                       # Total bandwidth to/from this memory (bytes/s)
system.mem_ctrls1.bw_total::cpu.inst               26                       # Total bandwidth to/from this memory (bytes/s)
system.mem_ctrls1.bw_total::switch_cpus.inst        51987                       # Total bandwidth to/from this memory (bytes/s)
system.mem_ctrls1.bw_total::switch_cpus.data    157901954                       # Total bandwidth to/from this memory (bytes/s)
system.mem_ctrls1.bw_total::switch_cpus_1.inst        15921                       # Total bandwidth to/from this memory (bytes/s)
system.mem_ctrls1.bw_total::switch_cpus_1.data     32707738                       # Total bandwidth to/from this memory (bytes/s)
system.mem_ctrls1.bw_total::total           258289374                       # Total bandwidth to/from this memory (bytes/s)
system.mem_ctrls1.readReqs                    7221935                       # Number of read requests accepted
system.mem_ctrls1.writeReqs                   2560802                       # Number of write requests accepted
system.mem_ctrls1.readBursts                  7221935                       # Number of DRAM read bursts, including those serviced by the write queue
system.mem_ctrls1.writeBursts                 2560802                       # Number of DRAM write bursts, including those merged in the write queue
system.mem_ctrls1.bytesReadDRAM             461782400                       # Total number of bytes read from DRAM
system.mem_ctrls1.bytesReadWrQ                 421440                       # Total number of bytes read from write queue
system.mem_ctrls1.bytesWritten              163889280                       # Total number of bytes written to DRAM
system.mem_ctrls1.bytesReadSys              462203840                       # Total read bytes from the system interface side
system.mem_ctrls1.bytesWrittenSys           163891328                       # Total written bytes from the system interface side
system.mem_ctrls1.servicedByWrQ                  6585                       # Number of DRAM read bursts serviced by the write queue
system.mem_ctrls1.mergedWrBursts                    0                       # Number of DRAM write bursts merged with an existing one
system.mem_ctrls1.neitherReadNorWriteReqs            0                       # Number of requests that are neither read nor write
system.mem_ctrls1.perBankRdBursts::0           478221                       # Per bank write bursts
system.mem_ctrls1.perBankRdBursts::1           456553                       # Per bank write bursts
system.mem_ctrls1.perBankRdBursts::2           451745                       # Per bank write bursts
system.mem_ctrls1.perBankRdBursts::3           454512                       # Per bank write bursts
system.mem_ctrls1.perBankRdBursts::4           452764                       # Per bank write bursts
system.mem_ctrls1.perBankRdBursts::5           463534                       # Per bank write bursts
system.mem_ctrls1.perBankRdBursts::6           445064                       # Per bank write bursts
system.mem_ctrls1.perBankRdBursts::7           449471                       # Per bank write bursts
system.mem_ctrls1.perBankRdBursts::8           463950                       # Per bank write bursts
system.mem_ctrls1.perBankRdBursts::9           446005                       # Per bank write bursts
system.mem_ctrls1.perBankRdBursts::10          439369                       # Per bank write bursts
system.mem_ctrls1.perBankRdBursts::11          444255                       # Per bank write bursts
system.mem_ctrls1.perBankRdBursts::12          439592                       # Per bank write bursts
system.mem_ctrls1.perBankRdBursts::13          441131                       # Per bank write bursts
system.mem_ctrls1.perBankRdBursts::14          439881                       # Per bank write bursts
system.mem_ctrls1.perBankRdBursts::15          449303                       # Per bank write bursts
system.mem_ctrls1.perBankWrBursts::0           170578                       # Per bank write bursts
system.mem_ctrls1.perBankWrBursts::1           159800                       # Per bank write bursts
system.mem_ctrls1.perBankWrBursts::2           163726                       # Per bank write bursts
system.mem_ctrls1.perBankWrBursts::3           162634                       # Per bank write bursts
system.mem_ctrls1.perBankWrBursts::4           161539                       # Per bank write bursts
system.mem_ctrls1.perBankWrBursts::5           161620                       # Per bank write bursts
system.mem_ctrls1.perBankWrBursts::6           156145                       # Per bank write bursts
system.mem_ctrls1.perBankWrBursts::7           156219                       # Per bank write bursts
system.mem_ctrls1.perBankWrBursts::8           157324                       # Per bank write bursts
system.mem_ctrls1.perBankWrBursts::9           153741                       # Per bank write bursts
system.mem_ctrls1.perBankWrBursts::10          154120                       # Per bank write bursts
system.mem_ctrls1.perBankWrBursts::11          154630                       # Per bank write bursts
system.mem_ctrls1.perBankWrBursts::12          153220                       # Per bank write bursts
system.mem_ctrls1.perBankWrBursts::13          159181                       # Per bank write bursts
system.mem_ctrls1.perBankWrBursts::14          167261                       # Per bank write bursts
system.mem_ctrls1.perBankWrBursts::15          169032                       # Per bank write bursts
system.mem_ctrls1.numRdRetry                        0                       # Number of times read queue was full causing retry
system.mem_ctrls1.numWrRetry                        0                       # Number of times write queue was full causing retry
system.mem_ctrls1.totGap                 2424006645588                       # Total gap between requests
system.mem_ctrls1.readPktSize::0                    0                       # Read request sizes (log2)
system.mem_ctrls1.readPktSize::1                    0                       # Read request sizes (log2)
system.mem_ctrls1.readPktSize::2                    0                       # Read request sizes (log2)
system.mem_ctrls1.readPktSize::3                    0                       # Read request sizes (log2)
system.mem_ctrls1.readPktSize::4                    0                       # Read request sizes (log2)
system.mem_ctrls1.readPktSize::5                    0                       # Read request sizes (log2)
system.mem_ctrls1.readPktSize::6              7221935                       # Read request sizes (log2)
system.mem_ctrls1.writePktSize::0                   0                       # Write request sizes (log2)
system.mem_ctrls1.writePktSize::1                   0                       # Write request sizes (log2)
system.mem_ctrls1.writePktSize::2                   0                       # Write request sizes (log2)
system.mem_ctrls1.writePktSize::3                   0                       # Write request sizes (log2)
system.mem_ctrls1.writePktSize::4                   0                       # Write request sizes (log2)
system.mem_ctrls1.writePktSize::5                   0                       # Write request sizes (log2)
system.mem_ctrls1.writePktSize::6             2560802                       # Write request sizes (log2)
system.mem_ctrls1.rdQLenPdf::0                6851348                       # What read queue length does an incoming req see
system.mem_ctrls1.rdQLenPdf::1                 309460                       # What read queue length does an incoming req see
system.mem_ctrls1.rdQLenPdf::2                  48706                       # What read queue length does an incoming req see
system.mem_ctrls1.rdQLenPdf::3                   5836                       # What read queue length does an incoming req see
system.mem_ctrls1.rdQLenPdf::4                      0                       # What read queue length does an incoming req see
system.mem_ctrls1.rdQLenPdf::5                      0                       # What read queue length does an incoming req see
system.mem_ctrls1.rdQLenPdf::6                      0                       # What read queue length does an incoming req see
system.mem_ctrls1.rdQLenPdf::7                      0                       # What read queue length does an incoming req see
system.mem_ctrls1.rdQLenPdf::8                      0                       # What read queue length does an incoming req see
system.mem_ctrls1.rdQLenPdf::9                      0                       # What read queue length does an incoming req see
system.mem_ctrls1.rdQLenPdf::10                     0                       # What read queue length does an incoming req see
system.mem_ctrls1.rdQLenPdf::11                     0                       # What read queue length does an incoming req see
system.mem_ctrls1.rdQLenPdf::12                     0                       # What read queue length does an incoming req see
system.mem_ctrls1.rdQLenPdf::13                     0                       # What read queue length does an incoming req see
system.mem_ctrls1.rdQLenPdf::14                     0                       # What read queue length does an incoming req see
system.mem_ctrls1.rdQLenPdf::15                     0                       # What read queue length does an incoming req see
system.mem_ctrls1.rdQLenPdf::16                     0                       # What read queue length does an incoming req see
system.mem_ctrls1.rdQLenPdf::17                     0                       # What read queue length does an incoming req see
system.mem_ctrls1.rdQLenPdf::18                     0                       # What read queue length does an incoming req see
system.mem_ctrls1.rdQLenPdf::19                     0                       # What read queue length does an incoming req see
system.mem_ctrls1.rdQLenPdf::20                     0                       # What read queue length does an incoming req see
system.mem_ctrls1.rdQLenPdf::21                     0                       # What read queue length does an incoming req see
system.mem_ctrls1.rdQLenPdf::22                     0                       # What read queue length does an incoming req see
system.mem_ctrls1.rdQLenPdf::23                     0                       # What read queue length does an incoming req see
system.mem_ctrls1.rdQLenPdf::24                     0                       # What read queue length does an incoming req see
system.mem_ctrls1.rdQLenPdf::25                     0                       # What read queue length does an incoming req see
system.mem_ctrls1.rdQLenPdf::26                     0                       # What read queue length does an incoming req see
system.mem_ctrls1.rdQLenPdf::27                     0                       # What read queue length does an incoming req see
system.mem_ctrls1.rdQLenPdf::28                     0                       # What read queue length does an incoming req see
system.mem_ctrls1.rdQLenPdf::29                     0                       # What read queue length does an incoming req see
system.mem_ctrls1.rdQLenPdf::30                     0                       # What read queue length does an incoming req see
system.mem_ctrls1.rdQLenPdf::31                     0                       # What read queue length does an incoming req see
system.mem_ctrls1.wrQLenPdf::0                      2                       # What write queue length does an incoming req see
system.mem_ctrls1.wrQLenPdf::1                      2                       # What write queue length does an incoming req see
system.mem_ctrls1.wrQLenPdf::2                      2                       # What write queue length does an incoming req see
system.mem_ctrls1.wrQLenPdf::3                      2                       # What write queue length does an incoming req see
system.mem_ctrls1.wrQLenPdf::4                      2                       # What write queue length does an incoming req see
system.mem_ctrls1.wrQLenPdf::5                      2                       # What write queue length does an incoming req see
system.mem_ctrls1.wrQLenPdf::6                      2                       # What write queue length does an incoming req see
system.mem_ctrls1.wrQLenPdf::7                      2                       # What write queue length does an incoming req see
system.mem_ctrls1.wrQLenPdf::8                      2                       # What write queue length does an incoming req see
system.mem_ctrls1.wrQLenPdf::9                      2                       # What write queue length does an incoming req see
system.mem_ctrls1.wrQLenPdf::10                     2                       # What write queue length does an incoming req see
system.mem_ctrls1.wrQLenPdf::11                     2                       # What write queue length does an incoming req see
system.mem_ctrls1.wrQLenPdf::12                     2                       # What write queue length does an incoming req see
system.mem_ctrls1.wrQLenPdf::13                     2                       # What write queue length does an incoming req see
system.mem_ctrls1.wrQLenPdf::14                     2                       # What write queue length does an incoming req see
system.mem_ctrls1.wrQLenPdf::15                 83673                       # What write queue length does an incoming req see
system.mem_ctrls1.wrQLenPdf::16                 88113                       # What write queue length does an incoming req see
system.mem_ctrls1.wrQLenPdf::17                142157                       # What write queue length does an incoming req see
system.mem_ctrls1.wrQLenPdf::18                148398                       # What write queue length does an incoming req see
system.mem_ctrls1.wrQLenPdf::19                149598                       # What write queue length does an incoming req see
system.mem_ctrls1.wrQLenPdf::20                149771                       # What write queue length does an incoming req see
system.mem_ctrls1.wrQLenPdf::21                149799                       # What write queue length does an incoming req see
system.mem_ctrls1.wrQLenPdf::22                149668                       # What write queue length does an incoming req see
system.mem_ctrls1.wrQLenPdf::23                149653                       # What write queue length does an incoming req see
system.mem_ctrls1.wrQLenPdf::24                149623                       # What write queue length does an incoming req see
system.mem_ctrls1.wrQLenPdf::25                149657                       # What write queue length does an incoming req see
system.mem_ctrls1.wrQLenPdf::26                149642                       # What write queue length does an incoming req see
system.mem_ctrls1.wrQLenPdf::27                150305                       # What write queue length does an incoming req see
system.mem_ctrls1.wrQLenPdf::28                150718                       # What write queue length does an incoming req see
system.mem_ctrls1.wrQLenPdf::29                151498                       # What write queue length does an incoming req see
system.mem_ctrls1.wrQLenPdf::30                150599                       # What write queue length does an incoming req see
system.mem_ctrls1.wrQLenPdf::31                148922                       # What write queue length does an incoming req see
system.mem_ctrls1.wrQLenPdf::32                148745                       # What write queue length does an incoming req see
system.mem_ctrls1.wrQLenPdf::33                   149                       # What write queue length does an incoming req see
system.mem_ctrls1.wrQLenPdf::34                    47                       # What write queue length does an incoming req see
system.mem_ctrls1.wrQLenPdf::35                    18                       # What write queue length does an incoming req see
system.mem_ctrls1.wrQLenPdf::36                     7                       # What write queue length does an incoming req see
system.mem_ctrls1.wrQLenPdf::37                     6                       # What write queue length does an incoming req see
system.mem_ctrls1.wrQLenPdf::38                     4                       # What write queue length does an incoming req see
system.mem_ctrls1.wrQLenPdf::39                     2                       # What write queue length does an incoming req see
system.mem_ctrls1.wrQLenPdf::40                     0                       # What write queue length does an incoming req see
system.mem_ctrls1.wrQLenPdf::41                     0                       # What write queue length does an incoming req see
system.mem_ctrls1.wrQLenPdf::42                     0                       # What write queue length does an incoming req see
system.mem_ctrls1.wrQLenPdf::43                     0                       # What write queue length does an incoming req see
system.mem_ctrls1.wrQLenPdf::44                     0                       # What write queue length does an incoming req see
system.mem_ctrls1.wrQLenPdf::45                     0                       # What write queue length does an incoming req see
system.mem_ctrls1.wrQLenPdf::46                     0                       # What write queue length does an incoming req see
system.mem_ctrls1.wrQLenPdf::47                     0                       # What write queue length does an incoming req see
system.mem_ctrls1.wrQLenPdf::48                     0                       # What write queue length does an incoming req see
system.mem_ctrls1.wrQLenPdf::49                     0                       # What write queue length does an incoming req see
system.mem_ctrls1.wrQLenPdf::50                     0                       # What write queue length does an incoming req see
system.mem_ctrls1.wrQLenPdf::51                     0                       # What write queue length does an incoming req see
system.mem_ctrls1.wrQLenPdf::52                     0                       # What write queue length does an incoming req see
system.mem_ctrls1.wrQLenPdf::53                     0                       # What write queue length does an incoming req see
system.mem_ctrls1.wrQLenPdf::54                     0                       # What write queue length does an incoming req see
system.mem_ctrls1.wrQLenPdf::55                     0                       # What write queue length does an incoming req see
system.mem_ctrls1.wrQLenPdf::56                     0                       # What write queue length does an incoming req see
system.mem_ctrls1.wrQLenPdf::57                     0                       # What write queue length does an incoming req see
system.mem_ctrls1.wrQLenPdf::58                     0                       # What write queue length does an incoming req see
system.mem_ctrls1.wrQLenPdf::59                     0                       # What write queue length does an incoming req see
system.mem_ctrls1.wrQLenPdf::60                     0                       # What write queue length does an incoming req see
system.mem_ctrls1.wrQLenPdf::61                     0                       # What write queue length does an incoming req see
system.mem_ctrls1.wrQLenPdf::62                     0                       # What write queue length does an incoming req see
system.mem_ctrls1.wrQLenPdf::63                     0                       # What write queue length does an incoming req see
system.mem_ctrls1.bytesPerActivate::samples      4379211                       # Bytes accessed per row activation
system.mem_ctrls1.bytesPerActivate::mean   142.873094                       # Bytes accessed per row activation
system.mem_ctrls1.bytesPerActivate::gmean    98.769634                       # Bytes accessed per row activation
system.mem_ctrls1.bytesPerActivate::stdev   184.866120                       # Bytes accessed per row activation
system.mem_ctrls1.bytesPerActivate::0-127      2857688     65.26%     65.26% # Bytes accessed per row activation
system.mem_ctrls1.bytesPerActivate::128-255       942542     21.52%     86.78% # Bytes accessed per row activation
system.mem_ctrls1.bytesPerActivate::256-383       225060      5.14%     91.92% # Bytes accessed per row activation
system.mem_ctrls1.bytesPerActivate::384-511       107777      2.46%     94.38% # Bytes accessed per row activation
system.mem_ctrls1.bytesPerActivate::512-639        56655      1.29%     95.67% # Bytes accessed per row activation
system.mem_ctrls1.bytesPerActivate::640-767        38876      0.89%     96.56% # Bytes accessed per row activation
system.mem_ctrls1.bytesPerActivate::768-895        35015      0.80%     97.36% # Bytes accessed per row activation
system.mem_ctrls1.bytesPerActivate::896-1023        33107      0.76%     98.12% # Bytes accessed per row activation
system.mem_ctrls1.bytesPerActivate::1024-1151        82491      1.88%    100.00% # Bytes accessed per row activation
system.mem_ctrls1.bytesPerActivate::total      4379211                       # Bytes accessed per row activation
system.mem_ctrls1.rdPerTurnAround::samples       148672                       # Reads before turning the bus around for writes
system.mem_ctrls1.rdPerTurnAround::mean     48.531465                       # Reads before turning the bus around for writes
system.mem_ctrls1.rdPerTurnAround::stdev   106.830651                       # Reads before turning the bus around for writes
system.mem_ctrls1.rdPerTurnAround::0-1023       148488     99.88%     99.88% # Reads before turning the bus around for writes
system.mem_ctrls1.rdPerTurnAround::1024-2047          174      0.12%     99.99% # Reads before turning the bus around for writes
system.mem_ctrls1.rdPerTurnAround::2048-3071            8      0.01%    100.00% # Reads before turning the bus around for writes
system.mem_ctrls1.rdPerTurnAround::3072-4095            1      0.00%    100.00% # Reads before turning the bus around for writes
system.mem_ctrls1.rdPerTurnAround::30720-31743            1      0.00%    100.00% # Reads before turning the bus around for writes
system.mem_ctrls1.rdPerTurnAround::total       148672                       # Reads before turning the bus around for writes
system.mem_ctrls1.wrPerTurnAround::samples       148672                       # Writes before turning the bus around for reads
system.mem_ctrls1.wrPerTurnAround::mean     17.224292                       # Writes before turning the bus around for reads
system.mem_ctrls1.wrPerTurnAround::gmean    17.190456                       # Writes before turning the bus around for reads
system.mem_ctrls1.wrPerTurnAround::stdev     1.079012                       # Writes before turning the bus around for reads
system.mem_ctrls1.wrPerTurnAround::16           61285     41.22%     41.22% # Writes before turning the bus around for reads
system.mem_ctrls1.wrPerTurnAround::17            3066      2.06%     43.28% # Writes before turning the bus around for reads
system.mem_ctrls1.wrPerTurnAround::18           75477     50.77%     94.05% # Writes before turning the bus around for reads
system.mem_ctrls1.wrPerTurnAround::19            7715      5.19%     99.24% # Writes before turning the bus around for reads
system.mem_ctrls1.wrPerTurnAround::20             896      0.60%     99.84% # Writes before turning the bus around for reads
system.mem_ctrls1.wrPerTurnAround::21             179      0.12%     99.96% # Writes before turning the bus around for reads
system.mem_ctrls1.wrPerTurnAround::22              31      0.02%     99.98% # Writes before turning the bus around for reads
system.mem_ctrls1.wrPerTurnAround::23              12      0.01%     99.99% # Writes before turning the bus around for reads
system.mem_ctrls1.wrPerTurnAround::24               4      0.00%    100.00% # Writes before turning the bus around for reads
system.mem_ctrls1.wrPerTurnAround::25               3      0.00%    100.00% # Writes before turning the bus around for reads
system.mem_ctrls1.wrPerTurnAround::26               2      0.00%    100.00% # Writes before turning the bus around for reads
system.mem_ctrls1.wrPerTurnAround::28               1      0.00%    100.00% # Writes before turning the bus around for reads
system.mem_ctrls1.wrPerTurnAround::29               1      0.00%    100.00% # Writes before turning the bus around for reads
system.mem_ctrls1.wrPerTurnAround::total       148672                       # Writes before turning the bus around for reads
system.mem_ctrls1.totQLat                138502131275                       # Total ticks spent queuing
system.mem_ctrls1.totMemAccLat           273789943775                       # Total ticks spent from burst creation until serviced by the DRAM
system.mem_ctrls1.totBusLat               36076750000                       # Total ticks spent in databus transfers
system.mem_ctrls1.avgQLat                    19195.48                       # Average queueing delay per DRAM burst
system.mem_ctrls1.avgBusLat                   5000.00                       # Average bus latency per DRAM burst
system.mem_ctrls1.avgMemAccLat               37945.48                       # Average memory access latency per DRAM burst
system.mem_ctrls1.avgRdBW                      190.50                       # Average DRAM read bandwidth in MiByte/s
system.mem_ctrls1.avgWrBW                       67.61                       # Average achieved write bandwidth in MiByte/s
system.mem_ctrls1.avgRdBWSys                   190.68                       # Average system read bandwidth in MiByte/s
system.mem_ctrls1.avgWrBWSys                    67.61                       # Average system write bandwidth in MiByte/s
system.mem_ctrls1.peakBW                     12800.00                       # Theoretical peak bandwidth in MiByte/s
system.mem_ctrls1.busUtil                        2.02                       # Data bus utilization in percentage
system.mem_ctrls1.busUtilRead                    1.49                       # Data bus utilization in percentage for reads
system.mem_ctrls1.busUtilWrite                   0.53                       # Data bus utilization in percentage for writes
system.mem_ctrls1.avgRdQLen                      1.02                       # Average read queue length when enqueuing
system.mem_ctrls1.avgWrQLen                     24.79                       # Average write queue length when enqueuing
system.mem_ctrls1.readRowHits                 4725697                       # Number of row buffer hits during reads
system.mem_ctrls1.writeRowHits                 671209                       # Number of row buffer hits during writes
system.mem_ctrls1.readRowHitRate                65.50                       # Row buffer hit rate for reads
system.mem_ctrls1.writeRowHitRate               26.21                       # Row buffer hit rate for writes
system.mem_ctrls1.avgGap                    247784.10                       # Average gap between requests
system.mem_ctrls1.pageHitRate                   55.20                       # Row buffer hit rate, read and write combined
system.mem_ctrls1_0.actEnergy             15722165760                       # Energy for activate commands per rank (pJ)
system.mem_ctrls1_0.preEnergy              8356525485                       # Energy for precharge commands per rank (pJ)
system.mem_ctrls1_0.readEnergy            26074308960                       # Energy for read commands per rank (pJ)
system.mem_ctrls1_0.writeEnergy            6745602420                       # Energy for write commands per rank (pJ)
system.mem_ctrls1_0.refreshEnergy        185554284240.000031                       # Energy for refresh commands per rank (pJ)
system.mem_ctrls1_0.actBackEnergy        138795063840                       # Energy for active background per rank (pJ)
system.mem_ctrls1_0.preBackEnergy          5223248160                       # Energy for precharge background per rank (pJ)
system.mem_ctrls1_0.actPowerDownEnergy   767482753470                       # Energy for active power-down per rank (pJ)
system.mem_ctrls1_0.prePowerDownEnergy   103902636480                       # Energy for precharge power-down per rank (pJ)
system.mem_ctrls1_0.selfRefreshEnergy     42598645920                       # Energy for self refresh per rank (pJ)
system.mem_ctrls1_0.totalEnergy          1300515768585                       # Total energy per rank (pJ)
system.mem_ctrls1_0.averagePower           536.514920                       # Core power per rank (mW)
system.mem_ctrls1_0.totalIdleTime        2105892108792                       # Total Idle time Per DRAM Rank
system.mem_ctrls1_0.memoryStateTime::IDLE   4685465919                       # Time in different power states
system.mem_ctrls1_0.memoryStateTime::REF  78565658000                       # Time in different power states
system.mem_ctrls1_0.memoryStateTime::SREF 152238748943                       # Time in different power states
system.mem_ctrls1_0.memoryStateTime::PRE_PDN 270576756967                       # Time in different power states
system.mem_ctrls1_0.memoryStateTime::ACT 234863103059                       # Time in different power states
system.mem_ctrls1_0.memoryStateTime::ACT_PDN 1683076945334                       # Time in different power states
system.mem_ctrls1_1.actEnergy             15545422200                       # Energy for activate commands per rank (pJ)
system.mem_ctrls1_1.preEnergy              8262580260                       # Energy for precharge commands per rank (pJ)
system.mem_ctrls1_1.readEnergy            25443290040                       # Energy for read commands per rank (pJ)
system.mem_ctrls1_1.writeEnergy            6621616980                       # Energy for write commands per rank (pJ)
system.mem_ctrls1_1.refreshEnergy        185615133600.000031                       # Energy for refresh commands per rank (pJ)
system.mem_ctrls1_1.actBackEnergy        139570567650                       # Energy for active background per rank (pJ)
system.mem_ctrls1_1.preBackEnergy          5327146560                       # Energy for precharge background per rank (pJ)
system.mem_ctrls1_1.actPowerDownEnergy   759692789760                       # Energy for active power-down per rank (pJ)
system.mem_ctrls1_1.prePowerDownEnergy   105962784960                       # Energy for precharge power-down per rank (pJ)
system.mem_ctrls1_1.selfRefreshEnergy     45738654360                       # Energy for self refresh per rank (pJ)
system.mem_ctrls1_1.totalEnergy          1297839653400                       # Total energy per rank (pJ)
system.mem_ctrls1_1.averagePower           535.410915                       # Core power per rank (mW)
system.mem_ctrls1_1.totalIdleTime        2103924402609                       # Total Idle time Per DRAM Rank
system.mem_ctrls1_1.memoryStateTime::IDLE   5074126171                       # Time in different power states
system.mem_ctrls1_1.memoryStateTime::REF  78599084000                       # Time in different power states
system.mem_ctrls1_1.memoryStateTime::SREF 161987720915                       # Time in different power states
system.mem_ctrls1_1.memoryStateTime::PRE_PDN 275944217374                       # Time in different power states
system.mem_ctrls1_1.memoryStateTime::ACT 236409011271                       # Time in different power states
system.mem_ctrls1_1.memoryStateTime::ACT_PDN 1665992518491                       # Time in different power states
system.pwrStateResidencyTicks::UNDEFINED 72453979259568                       # Cumulative time (in ticks) in various power states
system.cpu.branchPred.lookups                       1                       # Number of BP lookups
system.cpu.branchPred.condPredicted                 1                       # Number of conditional branches predicted
system.cpu.branchPred.condIncorrect                 0                       # Number of conditional branches incorrect
system.cpu.branchPred.BTBLookups                    0                       # Number of BTB lookups
system.cpu.branchPred.BTBHits                       0                       # Number of BTB hits
system.cpu.branchPred.BTBCorrect                    0                       # Number of correct BTB predictions (this stat may not work properly.
system.cpu.branchPred.BTBHitPct                   nan                       # BTB Hit Percentage
system.cpu.branchPred.usedRAS                       0                       # Number of times the RAS was used to get a target.
system.cpu.branchPred.RASInCorrect                  0                       # Number of incorrect RAS predictions.
system.cpu.branchPred.indirectLookups               0                       # Number of indirect predictor lookups.
system.cpu.branchPred.indirectHits                  0                       # Number of indirect target hits.
system.cpu.branchPred.indirectMisses                0                       # Number of indirect misses.
system.cpu.branchPredindirectMispredicted            0                       # Number of mispredicted indirect branches.
system.cpu_voltage_domain.voltage                   1                       # Voltage in Volts
system.cpu_clk_domain.clock                       333                       # Clock period in ticks
system.cpu.dtb.fetch_hits                           0                       # ITB hits
system.cpu.dtb.fetch_misses                         0                       # ITB misses
system.cpu.dtb.fetch_acv                            0                       # ITB acv
system.cpu.dtb.fetch_accesses                       0                       # ITB accesses
system.cpu.dtb.read_hits                            2                       # DTB read hits
system.cpu.dtb.read_misses                          0                       # DTB read misses
system.cpu.dtb.read_acv                             0                       # DTB read access violations
system.cpu.dtb.read_accesses                        2                       # DTB read accesses
system.cpu.dtb.write_hits                           0                       # DTB write hits
system.cpu.dtb.write_misses                         0                       # DTB write misses
system.cpu.dtb.write_acv                            0                       # DTB write access violations
system.cpu.dtb.write_accesses                       0                       # DTB write accesses
system.cpu.dtb.data_hits                            2                       # DTB hits
system.cpu.dtb.data_misses                          0                       # DTB misses
system.cpu.dtb.data_acv                             0                       # DTB access violations
system.cpu.dtb.data_accesses                        2                       # DTB accesses
system.cpu.itb.fetch_hits                           3                       # ITB hits
system.cpu.itb.fetch_misses                         0                       # ITB misses
system.cpu.itb.fetch_acv                            0                       # ITB acv
system.cpu.itb.fetch_accesses                       3                       # ITB accesses
system.cpu.itb.read_hits                            0                       # DTB read hits
system.cpu.itb.read_misses                          0                       # DTB read misses
system.cpu.itb.read_acv                             0                       # DTB read access violations
system.cpu.itb.read_accesses                        0                       # DTB read accesses
system.cpu.itb.write_hits                           0                       # DTB write hits
system.cpu.itb.write_misses                         0                       # DTB write misses
system.cpu.itb.write_acv                            0                       # DTB write access violations
system.cpu.itb.write_accesses                       0                       # DTB write accesses
system.cpu.itb.data_hits                            0                       # DTB hits
system.cpu.itb.data_misses                          0                       # DTB misses
system.cpu.itb.data_acv                             0                       # DTB access violations
system.cpu.itb.data_accesses                        0                       # DTB accesses
system.cpu.workload.num_syscalls                    5                       # Number of system calls
system.cpu.pwrStateResidencyTicks::ON    2424006678222                       # Cumulative time (in ticks) in various power states
system.cpu.numCycles                              290                       # number of cpu cycles simulated
system.cpu.numWorkItemsStarted                      0                       # number of work items this cpu started
system.cpu.numWorkItemsCompleted                    0                       # number of work items this cpu completed
system.cpu.fetch.icacheStallCycles                 18                       # Number of cycles fetch is stalled on an Icache miss
system.cpu.fetch.Insts                             10                       # Number of instructions fetch has processed
system.cpu.fetch.Branches                           1                       # Number of branches that fetch encountered
system.cpu.fetch.Cycles                             2                       # Number of cycles fetch has run and was not squashing or blocked
system.cpu.fetch.SquashCycles                       3                       # Number of cycles fetch has spent squashing
system.cpu.fetch.PendingDrainCycles                 3                       # Number of cycles fetch has spent waiting on pipes to drain
system.cpu.fetch.CacheLines                         3                       # Number of cache lines fetched
system.cpu.fetch.IcacheSquashes                     2                       # Number of outstanding Icache misses that were squashed
[...]
system.switch_cpus_1.iq.int_inst_queue_wakeup_accesses    196354118                       # Number of integer instruction queue wakeup accesses
system.switch_cpus_1.iq.fp_inst_queue_reads    132724183                       # Number of floating instruction queue reads
system.switch_cpus_1.iq.fp_inst_queue_writes     84634009                       # Number of floating instruction queue writes
system.switch_cpus_1.iq.fp_inst_queue_wakeup_accesses     59430440                       # Number of floating instruction queue wakeup accesses
system.switch_cpus_1.iq.int_alu_accesses    212593235                       # Number of integer alu accesses
system.switch_cpus_1.iq.fp_alu_accesses      67921160                       # Number of floating point alu accesses
system.switch_cpus_1.iew.lsq.thread0.forwLoads      2265905                       # Number of loads that had data forwarded from stores
system.switch_cpus_1.iew.lsq.thread0.invAddrLoads            0                       # Number of loads ignored due to an invalid address
system.switch_cpus_1.iew.lsq.thread0.squashedLoads     21478896                       # Number of loads squashed
system.switch_cpus_1.iew.lsq.thread0.ignoredResponses        15096                       # Number of memory responses ignored because the instruction is squashed
system.switch_cpus_1.iew.lsq.thread0.memOrderViolation         7993                       # Number of memory ordering violations
system.switch_cpus_1.iew.lsq.thread0.squashedStores      7135256                       # Number of stores squashed
system.switch_cpus_1.iew.lsq.thread0.invAddrSwpfs            0                       # Number of software prefetches ignored due to an invalid address
system.switch_cpus_1.iew.lsq.thread0.blockedLoads            0                       # Number of blocked loads due to partial load-store forwarding
system.switch_cpus_1.iew.lsq.thread0.rescheduledLoads         6015                       # Number of loads that were rescheduled
system.switch_cpus_1.iew.lsq.thread0.cacheBlocked     12824652                       # Number of times an access to memory failed due to the cache being blocked
system.switch_cpus_1.iew.iewIdleCycles              0                       # Number of cycles IEW is idle
system.switch_cpus_1.iew.iewSquashCycles      1485766                       # Number of cycles IEW is squashing
system.switch_cpus_1.iew.iewBlockCycles     104360913                       # Number of cycles IEW is blocking
system.switch_cpus_1.iew.iewUnblockCycles     47352890                       # Number of cycles IEW is unblocking
system.switch_cpus_1.iew.iewDispatchedInsts    291963447                       # Number of instructions dispatched to IQ
system.switch_cpus_1.iew.iewDispSquashedInsts       150050                       # Number of squashed instructions skipped by dispatch
system.switch_cpus_1.iew.iewDispLoadInsts     61150627                       # Number of dispatched load instructions
system.switch_cpus_1.iew.iewDispStoreInsts     19126299                       # Number of dispatched store instructions
system.switch_cpus_1.iew.iewDispNonSpecInsts          209                       # Number of dispatched non-speculative instructions
system.switch_cpus_1.iew.iewIQFullEvents      1069216                       # Number of times the IQ has become full, causing a stall
system.switch_cpus_1.iew.iewLSQFullEvents     45764484                       # Number of times the LSQ has become full, causing a stall
system.switch_cpus_1.iew.memOrderViolationEvents         7993                       # Number of memory order violations
system.switch_cpus_1.iew.predictedTakenIncorrect       825869                       # Number of branches that were predicted taken incorrectly
system.switch_cpus_1.iew.predictedNotTakenIncorrect       564053                       # Number of branches that were predicted not taken incorrectly
system.switch_cpus_1.iew.branchMispredicts      1389922                       # Number of branch mispredicts detected at execute
system.switch_cpus_1.iew.iewExecutedInsts    271828405                       # Number of executed instructions
system.switch_cpus_1.iew.iewExecLoadInsts     68232214                       # Number of load instructions executed
system.switch_cpus_1.iew.iewExecSquashedInsts      1792822                       # Number of squashed instructions skipped in execute
system.switch_cpus_1.iew.exec_swp                   0                       # number of swp insts executed
system.switch_cpus_1.iew.exec_nop             1881587                       # number of nop insts executed
system.switch_cpus_1.iew.exec_refs           83934786                       # number of memory reference insts executed
system.switch_cpus_1.iew.exec_branches       34686792                       # Number of branches executed
system.switch_cpus_1.iew.exec_stores         15702572                       # Number of stores executed
system.switch_cpus_1.iew.exec_rate           0.600599                       # Inst execution rate
system.switch_cpus_1.iew.wb_sent            257777042                       # cumulative count of insts sent to commit
system.switch_cpus_1.iew.wb_count           255784558                       # cumulative count of insts written-back
system.switch_cpus_1.iew.wb_producers       153419582                       # num instructions producing a value
system.switch_cpus_1.iew.wb_consumers       189092330                       # num instructions consuming a value
system.switch_cpus_1.iew.wb_rate             0.565150                       # insts written-back per cycle
system.switch_cpus_1.iew.wb_fanout           0.811347                       # average fanout of values written-back
system.switch_cpus_1.commit.commitSquashedInsts     86519535                       # The number of squashed insts skipped by commit
system.switch_cpus_1.commit.commitNonSpecStalls          204                       # The number of times commit has been forced to stall to communicate backwards
system.switch_cpus_1.commit.branchMispredicts      1113307                       # The number of times a branch was mispredicted
system.switch_cpus_1.commit.committed_per_cycle::samples    440412079                       # Number of insts commited each cycle
system.switch_cpus_1.commit.committed_per_cycle::mean     0.456887                       # Number of insts commited each cycle
system.switch_cpus_1.commit.committed_per_cycle::stdev     1.727192                       # Number of insts commited each cycle
system.switch_cpus_1.commit.committed_per_cycle::underflows            0      0.00%      0.00% # Number of insts commited each cycle
system.switch_cpus_1.commit.committed_per_cycle::0    401404821     91.14%     91.14% # Number of insts commited each cycle
system.switch_cpus_1.commit.committed_per_cycle::1      9180510      2.08%     93.23% # Number of insts commited each cycle
system.switch_cpus_1.commit.committed_per_cycle::2      4053531      0.92%     94.15% # Number of insts commited each cycle
system.switch_cpus_1.commit.committed_per_cycle::3      1841372      0.42%     94.57% # Number of insts commited each cycle
system.switch_cpus_1.commit.committed_per_cycle::4      1254202      0.28%     94.85% # Number of insts commited each cycle
system.switch_cpus_1.commit.committed_per_cycle::5      1896009      0.43%     95.28% # Number of insts commited each cycle
system.switch_cpus_1.commit.committed_per_cycle::6       729101      0.17%     95.45% # Number of insts commited each cycle
system.switch_cpus_1.commit.committed_per_cycle::7       885063      0.20%     95.65% # Number of insts commited each cycle
system.switch_cpus_1.commit.committed_per_cycle::8     19167470      4.35%    100.00% # Number of insts commited each cycle
system.switch_cpus_1.commit.committed_per_cycle::overflows            0      0.00%    100.00% # Number of insts commited each cycle
system.switch_cpus_1.commit.committed_per_cycle::min_value            0                       # Number of insts commited each cycle
system.switch_cpus_1.commit.committed_per_cycle::max_value            8                       # Number of insts commited each cycle
system.switch_cpus_1.commit.committed_per_cycle::total    440412079                       # Number of insts commited each cycle
system.switch_cpus_1.commit.committedInsts    201218348                       # Number of instructions committed
system.switch_cpus_1.commit.committedOps    201218348                       # Number of ops (including micro ops) committed
system.switch_cpus_1.commit.swp_count               0                       # Number of s/w prefetches committed
system.switch_cpus_1.commit.refs             51662749                       # Number of memory references committed
system.switch_cpus_1.commit.loads            39671713                       # Number of loads committed
system.switch_cpus_1.commit.membars               102                       # Number of memory barriers committed
system.switch_cpus_1.commit.branches         28384894                       # Number of branches committed
system.switch_cpus_1.commit.fp_insts         51627815                       # Number of committed floating point instructions.
system.switch_cpus_1.commit.int_insts       168624392                       # Number of committed integer instructions.
system.switch_cpus_1.commit.function_calls       460018                       # Number of function calls committed.
system.switch_cpus_1.commit.op_class_0::No_OpClass      1218344      0.61%      0.61% # Class of committed instruction
system.switch_cpus_1.commit.op_class_0::IntAlu    117264313     58.28%     58.88% # Class of committed instruction
system.switch_cpus_1.commit.op_class_0::IntMult       166526      0.08%     58.97% # Class of committed instruction
system.switch_cpus_1.commit.op_class_0::IntDiv            0      0.00%     58.97% # Class of committed instruction
system.switch_cpus_1.commit.op_class_0::FloatAdd     18908760      9.40%     68.36% # Class of committed instruction
system.switch_cpus_1.commit.op_class_0::FloatCmp     10580725      5.26%     73.62% # Class of committed instruction
system.switch_cpus_1.commit.op_class_0::FloatCvt         1376      0.00%     73.62% # Class of committed instruction
system.switch_cpus_1.commit.op_class_0::FloatMult       880508      0.44%     74.06% # Class of committed instruction
system.switch_cpus_1.commit.op_class_0::FloatMultAcc            0      0.00%     74.06% # Class of committed instruction
system.switch_cpus_1.commit.op_class_0::FloatDiv       534945      0.27%     74.32% # Class of committed instruction
system.switch_cpus_1.commit.op_class_0::FloatMisc            0      0.00%     74.32% # Class of committed instruction
system.switch_cpus_1.commit.op_class_0::FloatSqrt            0      0.00%     74.32% # Class of committed instruction
system.switch_cpus_1.commit.op_class_0::SimdAdd            0      0.00%     74.32% # Class of committed instruction
system.switch_cpus_1.commit.op_class_0::SimdAddAcc            0      0.00%     74.32% # Class of committed instruction
system.switch_cpus_1.commit.op_class_0::SimdAlu            0      0.00%     74.32% # Class of committed instruction
system.switch_cpus_1.commit.op_class_0::SimdCmp            0      0.00%     74.32% # Class of committed instruction
system.switch_cpus_1.commit.op_class_0::SimdCvt            0      0.00%     74.32% # Class of committed instruction
system.switch_cpus_1.commit.op_class_0::SimdMisc            0      0.00%     74.32% # Class of committed instruction
system.switch_cpus_1.commit.op_class_0::SimdMult            0      0.00%     74.32% # Class of committed instruction
system.switch_cpus_1.commit.op_class_0::SimdMultAcc            0      0.00%     74.32% # Class of committed instruction
system.switch_cpus_1.commit.op_class_0::SimdShift            0      0.00%     74.32% # Class of committed instruction
system.switch_cpus_1.commit.op_class_0::SimdShiftAcc            0      0.00%     74.32% # Class of committed instruction
system.switch_cpus_1.commit.op_class_0::SimdSqrt            0      0.00%     74.32% # Class of committed instruction
system.switch_cpus_1.commit.op_class_0::SimdFloatAdd            0      0.00%     74.32% # Class of committed instruction
system.switch_cpus_1.commit.op_class_0::SimdFloatAlu            0      0.00%     74.32% # Class of committed instruction
system.switch_cpus_1.commit.op_class_0::SimdFloatCmp            0      0.00%     74.32% # Class of committed instruction
system.switch_cpus_1.commit.op_class_0::SimdFloatCvt            0      0.00%     74.32% # Class of committed instruction
system.switch_cpus_1.commit.op_class_0::SimdFloatDiv            0      0.00%     74.32% # Class of committed instruction
system.switch_cpus_1.commit.op_class_0::SimdFloatMisc            0      0.00%     74.32% # Class of committed instruction
system.switch_cpus_1.commit.op_class_0::SimdFloatMult            0      0.00%     74.32% # Class of committed instruction
system.switch_cpus_1.commit.op_class_0::SimdFloatMultAcc            0      0.00%     74.32% # Class of committed instruction
system.switch_cpus_1.commit.op_class_0::SimdFloatSqrt            0      0.00%     74.32% # Class of committed instruction
system.switch_cpus_1.commit.op_class_0::MemRead     20146501     10.01%     84.34% # Class of committed instruction
system.switch_cpus_1.commit.op_class_0::MemWrite     10794849      5.36%     89.70% # Class of committed instruction
system.switch_cpus_1.commit.op_class_0::FloatMemRead     19525314      9.70%     99.41% # Class of committed instruction
system.switch_cpus_1.commit.op_class_0::FloatMemWrite      1196187      0.59%    100.00% # Class of committed instruction
system.switch_cpus_1.commit.op_class_0::IprAccess            0      0.00%    100.00% # Class of committed instruction
system.switch_cpus_1.commit.op_class_0::InstPrefetch            0      0.00%    100.00% # Class of committed instruction
system.switch_cpus_1.commit.op_class_0::total    201218348                       # Class of committed instruction
system.switch_cpus_1.commit.bw_lim_events     19167470                       # number cycles where commit BW limit reached
system.switch_cpus_1.rob.rob_reads          704217433                       # The number of ROB reads
system.switch_cpus_1.rob.rob_writes         587461497                       # The number of ROB writes
system.switch_cpus_1.timesIdled                  2175                       # Number of times that the entire CPU went into an idle state and unscheduled itself
system.switch_cpus_1.idleCycles                219298                       # Total number of cycles that the CPU has spent unscheduled due to idling
system.switch_cpus_1.committedInsts         200000004                       # Number of Instructions Simulated
system.switch_cpus_1.committedOps           200000004                       # Number of Ops (including micro ops) Simulated
system.switch_cpus_1.cpi                     2.262978                       # CPI: Cycles Per Instruction
system.switch_cpus_1.cpi_total               2.262978                       # CPI: Total CPI of All Threads
system.switch_cpus_1.ipc                     0.441896                       # IPC: Instructions Per Cycle
system.switch_cpus_1.ipc_total               0.441896                       # IPC: Total IPC of All Threads
system.switch_cpus_1.int_regfile_reads      353970205                       # number of integer regfile reads
system.switch_cpus_1.int_regfile_writes     160268842                       # number of integer regfile writes
system.switch_cpus_1.fp_regfile_reads        59590198                       # number of floating regfile reads
system.switch_cpus_1.fp_regfile_writes       46581196                       # number of floating regfile writes
system.switch_cpus_1.misc_regfile_reads           243                       # number of misc regfile reads
system.switch_cpus_1.misc_regfile_writes          204                       # number of misc regfile writes
system.tol3bus.snoop_filter.tot_requests     51974776                       # Total number of requests made to the snoop filter.
system.tol3bus.snoop_filter.hit_single_requests     25985165                       # Number of requests hitting in the snoop filter with a single holder of the requested data.
system.tol3bus.snoop_filter.hit_multi_requests            0                       # Number of requests hitting in the snoop filter with multiple (>1) holders of the requested data.
system.tol3bus.snoop_filter.tot_snoops         204480                       # Total number of snoops made to the snoop filter.
system.tol3bus.snoop_filter.hit_single_snoops       204480                       # Number of snoops hitting in the snoop filter with a single holder of the requested data.
system.tol3bus.snoop_filter.hit_multi_snoops            0                       # Number of snoops hitting in the snoop filter with multiple (>1) holders of the requested data.
system.tol3bus.pwrStateResidencyTicks::UNDEFINED 72453979259568                       # Cumulative time (in ticks) in various power states
system.tol3bus.trans_dist::ReadResp          19569760                       # Transaction distribution
system.tol3bus.trans_dist::WritebackDirty     17629642                       # Transaction distribution
system.tol3bus.trans_dist::CleanEvict        22743087                       # Transaction distribution
system.tol3bus.trans_dist::UpgradeReq              29                       # Transaction distribution
system.tol3bus.trans_dist::UpgradeResp             29                       # Transaction distribution
system.tol3bus.trans_dist::ReadExReq          6419851                       # Transaction distribution
system.tol3bus.trans_dist::ReadExResp         6419851                       # Transaction distribution
system.tol3bus.trans_dist::ReadSharedReq     19569760                       # Transaction distribution
system.tol3bus.pkt_count_system.cpu.l2.mem_side::system.l3.cpu_side     77964416                       # Packet count per connected master and slave (bytes)
system.tol3bus.pkt_size_system.cpu.l2.mem_side::system.l3.cpu_side   2464003328                       # Cumulative packet size per connected master and slave (bytes)
system.tol3bus.snoops                        14387593                       # Total snoops (count)
system.tol3bus.snoopTraffic                 327628864                       # Total snoop traffic (bytes)
system.tol3bus.snoop_fanout::samples         40377233                       # Request fanout histogram
system.tol3bus.snoop_fanout::mean            0.005064                       # Request fanout histogram
system.tol3bus.snoop_fanout::stdev           0.070983                       # Request fanout histogram
system.tol3bus.snoop_fanout::underflows             0      0.00%      0.00% # Request fanout histogram
system.tol3bus.snoop_fanout::0               40172753     99.49%     99.49% # Request fanout histogram
system.tol3bus.snoop_fanout::1                 204480      0.51%    100.00% # Request fanout histogram
system.tol3bus.snoop_fanout::overflows              0      0.00%    100.00% # Request fanout histogram
system.tol3bus.snoop_fanout::min_value              0                       # Request fanout histogram
system.tol3bus.snoop_fanout::max_value              1                       # Request fanout histogram
system.tol3bus.snoop_fanout::total           40377233                       # Request fanout histogram
system.tol3bus.reqLayer0.occupancy        21473577261                       # Layer occupancy (ticks)
system.tol3bus.reqLayer0.utilization              0.9                       # Layer utilization (%)
system.tol3bus.respLayer0.occupancy       17309090583                       # Layer occupancy (ticks)
system.tol3bus.respLayer0.utilization             0.7                       # Layer utilization (%)

---------- End Simulation Statistics   ----------
