
---------- Begin Simulation Statistics ----------
sim_seconds                                  1.015959                       # Number of seconds simulated
sim_ticks                                1015958972385                       # Number of ticks simulated
final_tick                               400904928578853                       # Number of ticks from beginning of simulation (restored from checkpoints and never reset)
sim_freq                                 1000000000000                       # Frequency of simulated ticks
host_inst_rate                                 683824                       # Simulator instruction rate (inst/s)
host_op_rate                                   683824                       # Simulator op (including micro ops) rate (op/s)
host_tick_rate                              578947600                       # Simulator tick rate (ticks/s)
host_mem_usage                                2411448                       # Number of bytes of host memory used
host_seconds                                  1754.84                       # Real time elapsed on the host
sim_insts                                  1200000004                       # Number of instructions simulated
sim_ops                                    1200000004                       # Number of ops (including micro ops) simulated
system.voltage_domain.voltage                       1                       # Voltage in Volts
system.clk_domain.clock                          1000                       # Clock period in ticks
system.mem_ctrls0.pwrStateResidencyTicks::UNDEFINED 400904928578853                       # Cumulative time (in ticks) in various power states
system.mem_ctrls0.bytes_read::cpu.inst            128                       # Number of bytes read from this memory
system.mem_ctrls0.bytes_read::switch_cpus.inst        21440                       # Number of bytes read from this memory
system.mem_ctrls0.bytes_read::switch_cpus.data      8151296                       # Number of bytes read from this memory
system.mem_ctrls0.bytes_read::switch_cpus_1.inst         2688                       # Number of bytes read from this memory
system.mem_ctrls0.bytes_read::switch_cpus_1.data      1622016                       # Number of bytes read from this memory
system.mem_ctrls0.bytes_read::total           9797568                       # Number of bytes read from this memory
system.mem_ctrls0.bytes_inst_read::cpu.inst          128                       # Number of instructions bytes read from this memory
system.mem_ctrls0.bytes_inst_read::switch_cpus.inst        21440                       # Number of instructions bytes read from this memory
system.mem_ctrls0.bytes_inst_read::switch_cpus_1.inst         2688                       # Number of instructions bytes read from this memory
system.mem_ctrls0.bytes_inst_read::total        24256                       # Number of instructions bytes read from this memory
system.mem_ctrls0.bytes_written::writebacks      5867072                       # Number of bytes written to this memory
system.mem_ctrls0.bytes_written::total        5867072                       # Number of bytes written to this memory
system.mem_ctrls0.num_reads::cpu.inst               2                       # Number of read requests responded to by this memory
system.mem_ctrls0.num_reads::switch_cpus.inst          335                       # Number of read requests responded to by this memory
system.mem_ctrls0.num_reads::switch_cpus.data       127364                       # Number of read requests responded to by this memory
system.mem_ctrls0.num_reads::switch_cpus_1.inst           42                       # Number of read requests responded to by this memory
system.mem_ctrls0.num_reads::switch_cpus_1.data        25344                       # Number of read requests responded to by this memory
system.mem_ctrls0.num_reads::total             153087                       # Number of read requests responded to by this memory
system.mem_ctrls0.num_writes::writebacks        91673                       # Number of write requests responded to by this memory
system.mem_ctrls0.num_writes::total             91673                       # Number of write requests responded to by this memory
system.mem_ctrls0.bw_read::cpu.inst               126                       # Total read bandwidth from this memory (bytes/s)
system.mem_ctrls0.bw_read::switch_cpus.inst        21103                       # Total read bandwidth from this memory (bytes/s)
system.mem_ctrls0.bw_read::switch_cpus.data      8023253                       # Total read bandwidth from this memory (bytes/s)
system.mem_ctrls0.bw_read::switch_cpus_1.inst         2646                       # Total read bandwidth from this memory (bytes/s)
system.mem_ctrls0.bw_read::switch_cpus_1.data      1596537                       # Total read bandwidth from this memory (bytes/s)
system.mem_ctrls0.bw_read::total              9643665                       # Total read bandwidth from this memory (bytes/s)
system.mem_ctrls0.bw_inst_read::cpu.inst          126                       # Instruction read bandwidth from this memory (bytes/s)
system.mem_ctrls0.bw_inst_read::switch_cpus.inst        21103                       # Instruction read bandwidth from this memory (bytes/s)
system.mem_ctrls0.bw_inst_read::switch_cpus_1.inst         2646                       # Instruction read bandwidth from this memory (bytes/s)
system.mem_ctrls0.bw_inst_read::total           23875                       # Instruction read bandwidth from this memory (bytes/s)
system.mem_ctrls0.bw_write::writebacks        5774910                       # Write bandwidth from this memory (bytes/s)
system.mem_ctrls0.bw_write::total             5774910                       # Write bandwidth from this memory (bytes/s)
system.mem_ctrls0.bw_total::writebacks        5774910                       # Total bandwidth to/from this memory (bytes/s)
system.mem_ctrls0.bw_total::cpu.inst              126                       # Total bandwidth to/from this memory (bytes/s)
system.mem_ctrls0.bw_total::switch_cpus.inst        21103                       # Total bandwidth to/from this memory (bytes/s)
system.mem_ctrls0.bw_total::switch_cpus.data      8023253                       # Total bandwidth to/from this memory (bytes/s)
system.mem_ctrls0.bw_total::switch_cpus_1.inst         2646                       # Total bandwidth to/from this memory (bytes/s)
system.mem_ctrls0.bw_total::switch_cpus_1.data      1596537                       # Total bandwidth to/from this memory (bytes/s)
system.mem_ctrls0.bw_total::total            15418575                       # Total bandwidth to/from this memory (bytes/s)
system.mem_ctrls0.readReqs                     153087                       # Number of read requests accepted
system.mem_ctrls0.writeReqs                     91673                       # Number of write requests accepted
system.mem_ctrls0.readBursts                   153087                       # Number of DRAM read bursts, including those serviced by the write queue
system.mem_ctrls0.writeBursts                   91673                       # Number of DRAM write bursts, including those merged in the write queue
system.mem_ctrls0.bytesReadDRAM               9797120                       # Total number of bytes read from DRAM
system.mem_ctrls0.bytesReadWrQ                    448                       # Total number of bytes read from write queue
system.mem_ctrls0.bytesWritten                5865024                       # Total number of bytes written to DRAM
system.mem_ctrls0.bytesReadSys                9797568                       # Total read bytes from the system interface side
system.mem_ctrls0.bytesWrittenSys             5867072                       # Total written bytes from the system interface side
system.mem_ctrls0.servicedByWrQ                     7                       # Number of DRAM read bursts serviced by the write queue
system.mem_ctrls0.mergedWrBursts                    0                       # Number of DRAM write bursts merged with an existing one
system.mem_ctrls0.neitherReadNorWriteReqs            0                       # Number of requests that are neither read nor write
system.mem_ctrls0.perBankRdBursts::0             9652                       # Per bank write bursts
system.mem_ctrls0.perBankRdBursts::1             9674                       # Per bank write bursts
system.mem_ctrls0.perBankRdBursts::2             9729                       # Per bank write bursts
system.mem_ctrls0.perBankRdBursts::3             9647                       # Per bank write bursts
system.mem_ctrls0.perBankRdBursts::4             9520                       # Per bank write bursts
system.mem_ctrls0.perBankRdBursts::5             9694                       # Per bank write bursts
system.mem_ctrls0.perBankRdBursts::6             9623                       # Per bank write bursts
system.mem_ctrls0.perBankRdBursts::7             9431                       # Per bank write bursts
system.mem_ctrls0.perBankRdBursts::8             9594                       # Per bank write bursts
system.mem_ctrls0.perBankRdBursts::9             9521                       # Per bank write bursts
system.mem_ctrls0.perBankRdBursts::10            9458                       # Per bank write bursts
system.mem_ctrls0.perBankRdBursts::11            9492                       # Per bank write bursts
system.mem_ctrls0.perBankRdBursts::12            9637                       # Per bank write bursts
system.mem_ctrls0.perBankRdBursts::13            9536                       # Per bank write bursts
system.mem_ctrls0.perBankRdBursts::14            9155                       # Per bank write bursts
system.mem_ctrls0.perBankRdBursts::15            9717                       # Per bank write bursts
system.mem_ctrls0.perBankWrBursts::0             5789                       # Per bank write bursts
system.mem_ctrls0.perBankWrBursts::1             5721                       # Per bank write bursts
system.mem_ctrls0.perBankWrBursts::2             5768                       # Per bank write bursts
system.mem_ctrls0.perBankWrBursts::3             5764                       # Per bank write bursts
system.mem_ctrls0.perBankWrBursts::4             5739                       # Per bank write bursts
system.mem_ctrls0.perBankWrBursts::5             5838                       # Per bank write bursts
system.mem_ctrls0.perBankWrBursts::6             5732                       # Per bank write bursts
system.mem_ctrls0.perBankWrBursts::7             5609                       # Per bank write bursts
system.mem_ctrls0.perBankWrBursts::8             5824                       # Per bank write bursts
system.mem_ctrls0.perBankWrBursts::9             5747                       # Per bank write bursts
system.mem_ctrls0.perBankWrBursts::10            5740                       # Per bank write bursts
system.mem_ctrls0.perBankWrBursts::11            5642                       # Per bank write bursts
system.mem_ctrls0.perBankWrBursts::12            5703                       # Per bank write bursts
system.mem_ctrls0.perBankWrBursts::13            5663                       # Per bank write bursts
system.mem_ctrls0.perBankWrBursts::14            5489                       # Per bank write bursts
system.mem_ctrls0.perBankWrBursts::15            5873                       # Per bank write bursts
system.mem_ctrls0.numRdRetry                        0                       # Number of times read queue was full causing retry
system.mem_ctrls0.numWrRetry                        0                       # Number of times write queue was full causing retry
system.mem_ctrls0.totGap                 1015958581776                       # Total gap between requests
system.mem_ctrls0.readPktSize::0                    0                       # Read request sizes (log2)
system.mem_ctrls0.readPktSize::1                    0                       # Read request sizes (log2)
system.mem_ctrls0.readPktSize::2                    0                       # Read request sizes (log2)
system.mem_ctrls0.readPktSize::3                    0                       # Read request sizes (log2)
system.mem_ctrls0.readPktSize::4                    0                       # Read request sizes (log2)
system.mem_ctrls0.readPktSize::5                    0                       # Read request sizes (log2)
system.mem_ctrls0.readPktSize::6               153087                       # Read request sizes (log2)
system.mem_ctrls0.writePktSize::0                   0                       # Write request sizes (log2)
system.mem_ctrls0.writePktSize::1                   0                       # Write request sizes (log2)
system.mem_ctrls0.writePktSize::2                   0                       # Write request sizes (log2)
system.mem_ctrls0.writePktSize::3                   0                       # Write request sizes (log2)
system.mem_ctrls0.writePktSize::4                   0                       # Write request sizes (log2)
system.mem_ctrls0.writePktSize::5                   0                       # Write request sizes (log2)
system.mem_ctrls0.writePktSize::6               91673                       # Write request sizes (log2)
system.mem_ctrls0.rdQLenPdf::0                 153008                       # What read queue length does an incoming req see
system.mem_ctrls0.rdQLenPdf::1                     72                       # What read queue length does an incoming req see
system.mem_ctrls0.rdQLenPdf::2                      0                       # What read queue length does an incoming req see
system.mem_ctrls0.rdQLenPdf::3                      0                       # What read queue length does an incoming req see
system.mem_ctrls0.rdQLenPdf::4                      0                       # What read queue length does an incoming req see
system.mem_ctrls0.rdQLenPdf::5                      0                       # What read queue length does an incoming req see
system.mem_ctrls0.rdQLenPdf::6                      0                       # What read queue length does an incoming req see
system.mem_ctrls0.rdQLenPdf::7                      0                       # What read queue length does an incoming req see
system.mem_ctrls0.rdQLenPdf::8                      0                       # What read queue length does an incoming req see
system.mem_ctrls0.rdQLenPdf::9                      0                       # What read queue length does an incoming req see
system.mem_ctrls0.rdQLenPdf::10                     0                       # What read queue length does an incoming req see
system.mem_ctrls0.rdQLenPdf::11                     0                       # What read queue length does an incoming req see
system.mem_ctrls0.rdQLenPdf::12                     0                       # What read queue length does an incoming req see
system.mem_ctrls0.rdQLenPdf::13                     0                       # What read queue length does an incoming req see
system.mem_ctrls0.rdQLenPdf::14                     0                       # What read queue length does an incoming req see
system.mem_ctrls0.rdQLenPdf::15                     0                       # What read queue length does an incoming req see
system.mem_ctrls0.rdQLenPdf::16                     0                       # What read queue length does an incoming req see
system.mem_ctrls0.rdQLenPdf::17                     0                       # What read queue length does an incoming req see
system.mem_ctrls0.rdQLenPdf::18                     0                       # What read queue length does an incoming req see
system.mem_ctrls0.rdQLenPdf::19                     0                       # What read queue length does an incoming req see
system.mem_ctrls0.rdQLenPdf::20                     0                       # What read queue length does an incoming req see
system.mem_ctrls0.rdQLenPdf::21                     0                       # What read queue length does an incoming req see
system.mem_ctrls0.rdQLenPdf::22                     0                       # What read queue length does an incoming req see
system.mem_ctrls0.rdQLenPdf::23                     0                       # What read queue length does an incoming req see
system.mem_ctrls0.rdQLenPdf::24                     0                       # What read queue length does an incoming req see
system.mem_ctrls0.rdQLenPdf::25                     0                       # What read queue length does an incoming req see
system.mem_ctrls0.rdQLenPdf::26                     0                       # What read queue length does an incoming req see
system.mem_ctrls0.rdQLenPdf::27                     0                       # What read queue length does an incoming req see
system.mem_ctrls0.rdQLenPdf::28                     0                       # What read queue length does an incoming req see
system.mem_ctrls0.rdQLenPdf::29                     0                       # What read queue length does an incoming req see
system.mem_ctrls0.rdQLenPdf::30                     0                       # What read queue length does an incoming req see
system.mem_ctrls0.rdQLenPdf::31                     0                       # What read queue length does an incoming req see
system.mem_ctrls0.wrQLenPdf::0                      2                       # What write queue length does an incoming req see
system.mem_ctrls0.wrQLenPdf::1                      2                       # What write queue length does an incoming req see
system.mem_ctrls0.wrQLenPdf::2                      2                       # What write queue length does an incoming req see
system.mem_ctrls0.wrQLenPdf::3                      2                       # What write queue length does an incoming req see
system.mem_ctrls0.wrQLenPdf::4                      2                       # What write queue length does an incoming req see
system.mem_ctrls0.wrQLenPdf::5                      2                       # What write queue length does an incoming req see
system.mem_ctrls0.wrQLenPdf::6                      2                       # What write queue length does an incoming req see
system.mem_ctrls0.wrQLenPdf::7                      2                       # What write queue length does an incoming req see
system.mem_ctrls0.wrQLenPdf::8                      2                       # What write queue length does an incoming req see
system.mem_ctrls0.wrQLenPdf::9                      2                       # What write queue length does an incoming req see
system.mem_ctrls0.wrQLenPdf::10                     2                       # What write queue length does an incoming req see
system.mem_ctrls0.wrQLenPdf::11                     2                       # What write queue length does an incoming req see
system.mem_ctrls0.wrQLenPdf::12                     2                       # What write queue length does an incoming req see
system.mem_ctrls0.wrQLenPdf::13                     2                       # What write queue length does an incoming req see
system.mem_ctrls0.wrQLenPdf::14                     2                       # What write queue length does an incoming req see
system.mem_ctrls0.wrQLenPdf::15                  4326                       # What write queue length does an incoming req see
system.mem_ctrls0.wrQLenPdf::16                  4417                       # What write queue length does an incoming req see
system.mem_ctrls0.wrQLenPdf::17                  5149                       # What write queue length does an incoming req see
system.mem_ctrls0.wrQLenPdf::18                  5181                       # What write queue length does an incoming req see
system.mem_ctrls0.wrQLenPdf::19                  5178                       # What write queue length does an incoming req see
system.mem_ctrls0.wrQLenPdf::20                  5176                       # What write queue length does an incoming req see
system.mem_ctrls0.wrQLenPdf::21                  5176                       # What write queue length does an incoming req see
system.mem_ctrls0.wrQLenPdf::22                  5177                       # What write queue length does an incoming req see
system.mem_ctrls0.wrQLenPdf::23                  5186                       # What write queue length does an incoming req see
system.mem_ctrls0.wrQLenPdf::24                  5179                       # What write queue length does an incoming req see
system.mem_ctrls0.wrQLenPdf::25                  5170                       # What write queue length does an incoming req see
system.mem_ctrls0.wrQLenPdf::26                  5236                       # What write queue length does an incoming req see
system.mem_ctrls0.wrQLenPdf::27                  5215                       # What write queue length does an incoming req see
system.mem_ctrls0.wrQLenPdf::28                  5169                       # What write queue length does an incoming req see
system.mem_ctrls0.wrQLenPdf::29                  5168                       # What write queue length does an incoming req see
system.mem_ctrls0.wrQLenPdf::30                  5170                       # What write queue length does an incoming req see
system.mem_ctrls0.wrQLenPdf::31                  5167                       # What write queue length does an incoming req see
system.mem_ctrls0.wrQLenPdf::32                  5166                       # What write queue length does an incoming req see
system.mem_ctrls0.wrQLenPdf::33                    37                       # What write queue length does an incoming req see
system.mem_ctrls0.wrQLenPdf::34                     0                       # What write queue length does an incoming req see
system.mem_ctrls0.wrQLenPdf::35                     0                       # What write queue length does an incoming req see
system.mem_ctrls0.wrQLenPdf::36                     0                       # What write queue length does an incoming req see
system.mem_ctrls0.wrQLenPdf::37                     0                       # What write queue length does an incoming req see
system.mem_ctrls0.wrQLenPdf::38                     0                       # What write queue length does an incoming req see
system.mem_ctrls0.wrQLenPdf::39                     0                       # What write queue length does an incoming req see
system.mem_ctrls0.wrQLenPdf::40                     0                       # What write queue length does an incoming req see
system.mem_ctrls0.wrQLenPdf::41                     0                       # What write queue length does an incoming req see
system.mem_ctrls0.wrQLenPdf::42                     0                       # What write queue length does an incoming req see
system.mem_ctrls0.wrQLenPdf::43                     0                       # What write queue length does an incoming req see
system.mem_ctrls0.wrQLenPdf::44                     0                       # What write queue length does an incoming req see
system.mem_ctrls0.wrQLenPdf::45                     0                       # What write queue length does an incoming req see
system.mem_ctrls0.wrQLenPdf::46                     0                       # What write queue length does an incoming req see
system.mem_ctrls0.wrQLenPdf::47                     0                       # What write queue length does an incoming req see
system.mem_ctrls0.wrQLenPdf::48                     0                       # What write queue length does an incoming req see
system.mem_ctrls0.wrQLenPdf::49                     0                       # What write queue length does an incoming req see
system.mem_ctrls0.wrQLenPdf::50                     0                       # What write queue length does an incoming req see
system.mem_ctrls0.wrQLenPdf::51                     0                       # What write queue length does an incoming req see
system.mem_ctrls0.wrQLenPdf::52                     0                       # What write queue length does an incoming req see
system.mem_ctrls0.wrQLenPdf::53                     0                       # What write queue length does an incoming req see
system.mem_ctrls0.wrQLenPdf::54                     0                       # What write queue length does an incoming req see
system.mem_ctrls0.wrQLenPdf::55                     0                       # What write queue length does an incoming req see
system.mem_ctrls0.wrQLenPdf::56                     0                       # What write queue length does an incoming req see
system.mem_ctrls0.wrQLenPdf::57                     0                       # What write queue length does an incoming req see
system.mem_ctrls0.wrQLenPdf::58                     0                       # What write queue length does an incoming req see
system.mem_ctrls0.wrQLenPdf::59                     0                       # What write queue length does an incoming req see
system.mem_ctrls0.wrQLenPdf::60                     0                       # What write queue length does an incoming req see
system.mem_ctrls0.wrQLenPdf::61                     0                       # What write queue length does an incoming req see
system.mem_ctrls0.wrQLenPdf::62                     0                       # What write queue length does an incoming req see
system.mem_ctrls0.wrQLenPdf::63                     0                       # What write queue length does an incoming req see
system.mem_ctrls0.bytesPerActivate::samples       240809                       # Bytes accessed per row activation
system.mem_ctrls0.bytesPerActivate::mean    65.038898                       # Bytes accessed per row activation
system.mem_ctrls0.bytesPerActivate::gmean    64.680268                       # Bytes accessed per row activation
system.mem_ctrls0.bytesPerActivate::stdev    10.047890                       # Bytes accessed per row activation
system.mem_ctrls0.bytesPerActivate::64-127       237313     98.55%     98.55% # Bytes accessed per row activation
system.mem_ctrls0.bytesPerActivate::128-191         3323      1.38%     99.93% # Bytes accessed per row activation
system.mem_ctrls0.bytesPerActivate::192-255           78      0.03%     99.96% # Bytes accessed per row activation
system.mem_ctrls0.bytesPerActivate::256-319           45      0.02%     99.98% # Bytes accessed per row activation
system.mem_ctrls0.bytesPerActivate::320-383           14      0.01%     99.99% # Bytes accessed per row activation
system.mem_ctrls0.bytesPerActivate::384-447           14      0.01%     99.99% # Bytes accessed per row activation
system.mem_ctrls0.bytesPerActivate::448-511            5      0.00%     99.99% # Bytes accessed per row activation
system.mem_ctrls0.bytesPerActivate::512-575           10      0.00%    100.00% # Bytes accessed per row activation
system.mem_ctrls0.bytesPerActivate::576-639            4      0.00%    100.00% # Bytes accessed per row activation
system.mem_ctrls0.bytesPerActivate::768-831            1      0.00%    100.00% # Bytes accessed per row activation
system.mem_ctrls0.bytesPerActivate::896-959            2      0.00%    100.00% # Bytes accessed per row activation
system.mem_ctrls0.bytesPerActivate::total       240809                       # Bytes accessed per row activation
system.mem_ctrls0.rdPerTurnAround::samples         5167                       # Reads before turning the bus around for writes
system.mem_ctrls0.rdPerTurnAround::mean     29.622411                       # Reads before turning the bus around for writes
system.mem_ctrls0.rdPerTurnAround::gmean    23.475040                       # Reads before turning the bus around for writes
system.mem_ctrls0.rdPerTurnAround::stdev   323.572399                       # Reads before turning the bus around for writes
system.mem_ctrls0.rdPerTurnAround::0-1023         5166     99.98%     99.98% # Reads before turning the bus around for writes
system.mem_ctrls0.rdPerTurnAround::22528-23551            1      0.02%    100.00% # Reads before turning the bus around for writes
system.mem_ctrls0.rdPerTurnAround::total         5167                       # Reads before turning the bus around for writes
system.mem_ctrls0.wrPerTurnAround::samples         5167                       # Writes before turning the bus around for reads
system.mem_ctrls0.wrPerTurnAround::mean     17.735823                       # Writes before turning the bus around for reads
system.mem_ctrls0.wrPerTurnAround::gmean    17.718714                       # Writes before turning the bus around for reads
system.mem_ctrls0.wrPerTurnAround::stdev     0.761592                       # Writes before turning the bus around for reads
system.mem_ctrls0.wrPerTurnAround::16             759     14.69%     14.69% # Writes before turning the bus around for reads
system.mem_ctrls0.wrPerTurnAround::17              77      1.49%     16.18% # Writes before turning the bus around for reads
system.mem_ctrls0.wrPerTurnAround::18            4107     79.49%     95.66% # Writes before turning the bus around for reads
system.mem_ctrls0.wrPerTurnAround::19             219      4.24%     99.90% # Writes before turning the bus around for reads
system.mem_ctrls0.wrPerTurnAround::20               4      0.08%     99.98% # Writes before turning the bus around for reads
system.mem_ctrls0.wrPerTurnAround::21               1      0.02%    100.00% # Writes before turning the bus around for reads
system.mem_ctrls0.wrPerTurnAround::total         5167                       # Writes before turning the bus around for reads
system.mem_ctrls0.totQLat                 27567959268                       # Total ticks spent queuing
system.mem_ctrls0.totMemAccLat            30438209268                       # Total ticks spent from burst creation until serviced by the DRAM
system.mem_ctrls0.totBusLat                 765400000                       # Total ticks spent in databus transfers
system.mem_ctrls0.avgQLat                   180088.58                       # Average queueing delay per DRAM burst
system.mem_ctrls0.avgBusLat                   5000.00                       # Average bus latency per DRAM burst
system.mem_ctrls0.avgMemAccLat              198838.58                       # Average memory access latency per DRAM burst
system.mem_ctrls0.avgRdBW                        9.64                       # Average DRAM read bandwidth in MiByte/s
system.mem_ctrls0.avgWrBW                        5.77                       # Average achieved write bandwidth in MiByte/s
system.mem_ctrls0.avgRdBWSys                     9.64                       # Average system read bandwidth in MiByte/s
system.mem_ctrls0.avgWrBWSys                     5.77                       # Average system write bandwidth in MiByte/s
system.mem_ctrls0.peakBW                     12800.00                       # Theoretical peak bandwidth in MiByte/s
system.mem_ctrls0.busUtil                        0.12                       # Data bus utilization in percentage
system.mem_ctrls0.busUtilRead                    0.08                       # Data bus utilization in percentage for reads
system.mem_ctrls0.busUtilWrite                   0.05                       # Data bus utilization in percentage for writes
system.mem_ctrls0.avgRdQLen                      1.00                       # Average read queue length when enqueuing
system.mem_ctrls0.avgWrQLen                     20.83                       # Average write queue length when enqueuing
system.mem_ctrls0.readRowHits                    3420                       # Number of row buffer hits during reads
system.mem_ctrls0.writeRowHits                    489                       # Number of row buffer hits during writes
system.mem_ctrls0.readRowHitRate                 2.23                       # Row buffer hit rate for reads
system.mem_ctrls0.writeRowHitRate                0.53                       # Row buffer hit rate for writes
system.mem_ctrls0.avgGap                   4150835.85                       # Average gap between requests
system.mem_ctrls0.pageHitRate                    1.60                       # Row buffer hit rate, read and write combined
system.mem_ctrls0_0.actEnergy               862419180                       # Energy for activate commands per rank (pJ)
system.mem_ctrls0_0.preEnergy               458382870                       # Energy for precharge commands per rank (pJ)
system.mem_ctrls0_0.readEnergy              549565800                       # Energy for read commands per rank (pJ)
system.mem_ctrls0_0.writeEnergy             239911200                       # Energy for write commands per rank (pJ)
system.mem_ctrls0_0.refreshEnergy        58457181120.000015                       # Energy for refresh commands per rank (pJ)
system.mem_ctrls0_0.actBackEnergy         18977916870                       # Energy for active background per rank (pJ)
system.mem_ctrls0_0.preBackEnergy          3323319840                       # Energy for precharge background per rank (pJ)
system.mem_ctrls0_0.actPowerDownEnergy   120551842770                       # Energy for active power-down per rank (pJ)
system.mem_ctrls0_0.prePowerDownEnergy    97099071360                       # Energy for precharge power-down per rank (pJ)
system.mem_ctrls0_0.selfRefreshEnergy    120815828310                       # Energy for self refresh per rank (pJ)
system.mem_ctrls0_0.totalEnergy          421361876400                       # Total energy per rank (pJ)
system.mem_ctrls0_0.averagePower           414.742998                       # Core power per rank (mW)
system.mem_ctrls0_0.totalIdleTime        965626851886                       # Total Idle time Per DRAM Rank
system.mem_ctrls0_0.memoryStateTime::IDLE   6585162557                       # Time in different power states
system.mem_ctrls0_0.memoryStateTime::REF  24873784000                       # Time in different power states
system.mem_ctrls0_0.memoryStateTime::SREF 448397200906                       # Time in different power states
system.mem_ctrls0_0.memoryStateTime::PRE_PDN 252862103572                       # Time in different power states
system.mem_ctrls0_0.memoryStateTime::ACT  18872503818                       # Time in different power states
system.mem_ctrls0_0.memoryStateTime::ACT_PDN 264368217532                       # Time in different power states
system.mem_ctrls0_1.actEnergy               856978500                       # Energy for activate commands per rank (pJ)
system.mem_ctrls0_1.preEnergy               455487285                       # Energy for precharge commands per rank (pJ)
system.mem_ctrls0_1.readEnergy              543425400                       # Energy for read commands per rank (pJ)
system.mem_ctrls0_1.writeEnergy             238454820                       # Energy for write commands per rank (pJ)
system.mem_ctrls0_1.refreshEnergy        58149246480.000015                       # Energy for refresh commands per rank (pJ)
system.mem_ctrls0_1.actBackEnergy         18754193010                       # Energy for active background per rank (pJ)
system.mem_ctrls0_1.preBackEnergy          3321924960                       # Energy for precharge background per rank (pJ)
system.mem_ctrls0_1.actPowerDownEnergy   119699995440                       # Energy for active power-down per rank (pJ)
system.mem_ctrls0_1.prePowerDownEnergy    96665733120                       # Energy for precharge power-down per rank (pJ)
system.mem_ctrls0_1.selfRefreshEnergy    121622380515                       # Energy for self refresh per rank (pJ)
system.mem_ctrls0_1.totalEnergy          420334138140                       # Total energy per rank (pJ)
system.mem_ctrls0_1.averagePower           413.731403                       # Core power per rank (mW)
system.mem_ctrls0_1.totalIdleTime        966121782568                       # Total Idle time Per DRAM Rank
system.mem_ctrls0_1.memoryStateTime::IDLE   6583250085                       # Time in different power states
system.mem_ctrls0_1.memoryStateTime::REF  24742996000                       # Time in different power states
system.mem_ctrls0_1.memoryStateTime::SREF 451888265546                       # Time in different power states
system.mem_ctrls0_1.memoryStateTime::PRE_PDN 251733538249                       # Time in different power states
system.mem_ctrls0_1.memoryStateTime::ACT  18510647900                       # Time in different power states
system.mem_ctrls0_1.memoryStateTime::ACT_PDN 262500274605                       # Time in different power states
system.mem_ctrls1.pwrStateResidencyTicks::UNDEFINED 400904928578853                       # Cumulative time (in ticks) in various power states
system.mem_ctrls1.bytes_read::cpu.inst            128                       # Number of bytes read from this memory
system.mem_ctrls1.bytes_read::cpu.data            128                       # Number of bytes read from this memory
system.mem_ctrls1.bytes_read::switch_cpus.inst        20992                       # Number of bytes read from this memory
system.mem_ctrls1.bytes_read::switch_cpus.data      8169664                       # Number of bytes read from this memory
system.mem_ctrls1.bytes_read::switch_cpus_1.inst         3584                       # Number of bytes read from this memory
system.mem_ctrls1.bytes_read::switch_cpus_1.data      1619712                       # Number of bytes read from this memory
system.mem_ctrls1.bytes_read::total           9814208                       # Number of bytes read from this memory
system.mem_ctrls1.bytes_inst_read::cpu.inst          128                       # Number of instructions bytes read from this memory
system.mem_ctrls1.bytes_inst_read::switch_cpus.inst        20992                       # Number of instructions bytes read from this memory
system.mem_ctrls1.bytes_inst_read::switch_cpus_1.inst         3584                       # Number of instructions bytes read from this memory
system.mem_ctrls1.bytes_inst_read::total        24704                       # Number of instructions bytes read from this memory
system.mem_ctrls1.bytes_written::writebacks      5900288                       # Number of bytes written to this memory
system.mem_ctrls1.bytes_written::total        5900288                       # Number of bytes written to this memory
system.mem_ctrls1.num_reads::cpu.inst               2                       # Number of read requests responded to by this memory
system.mem_ctrls1.num_reads::cpu.data               2                       # Number of read requests responded to by this memory
system.mem_ctrls1.num_reads::switch_cpus.inst          328                       # Number of read requests responded to by this memory
system.mem_ctrls1.num_reads::switch_cpus.data       127651                       # Number of read requests responded to by this memory
system.mem_ctrls1.num_reads::switch_cpus_1.inst           56                       # Number of read requests responded to by this memory
system.mem_ctrls1.num_reads::switch_cpus_1.data        25308                       # Number of read requests responded to by this memory
system.mem_ctrls1.num_reads::total             153347                       # Number of read requests responded to by this memory
system.mem_ctrls1.num_writes::writebacks        92192                       # Number of write requests responded to by this memory
system.mem_ctrls1.num_writes::total             92192                       # Number of write requests responded to by this memory
system.mem_ctrls1.bw_read::cpu.inst               126                       # Total read bandwidth from this memory (bytes/s)
system.mem_ctrls1.bw_read::cpu.data               126                       # Total read bandwidth from this memory (bytes/s)
system.mem_ctrls1.bw_read::switch_cpus.inst        20662                       # Total read bandwidth from this memory (bytes/s)
system.mem_ctrls1.bw_read::switch_cpus.data      8041333                       # Total read bandwidth from this memory (bytes/s)
system.mem_ctrls1.bw_read::switch_cpus_1.inst         3528                       # Total read bandwidth from this memory (bytes/s)
system.mem_ctrls1.bw_read::switch_cpus_1.data      1594269                       # Total read bandwidth from this memory (bytes/s)
system.mem_ctrls1.bw_read::total              9660044                       # Total read bandwidth from this memory (bytes/s)
system.mem_ctrls1.bw_inst_read::cpu.inst          126                       # Instruction read bandwidth from this memory (bytes/s)
system.mem_ctrls1.bw_inst_read::switch_cpus.inst        20662                       # Instruction read bandwidth from this memory (bytes/s)
system.mem_ctrls1.bw_inst_read::switch_cpus_1.inst         3528                       # Instruction read bandwidth from this memory (bytes/s)
system.mem_ctrls1.bw_inst_read::total           24316                       # Instruction read bandwidth from this memory (bytes/s)
system.mem_ctrls1.bw_write::writebacks        5807605                       # Write bandwidth from this memory (bytes/s)
system.mem_ctrls1.bw_write::total             5807605                       # Write bandwidth from this memory (bytes/s)
system.mem_ctrls1.bw_total::writebacks        5807605                       # Total bandwidth to/from this memory (bytes/s)
system.mem_ctrls1.bw_total::cpu.inst              126                       # Total bandwidth to/from this memory (bytes/s)
system.mem_ctrls1.bw_total::cpu.data              126                       # Total bandwidth to/from this memory (bytes/s)
system.mem_ctrls1.bw_total::switch_cpus.inst        20662                       # Total bandwidth to/from this memory (bytes/s)
system.mem_ctrls1.bw_total::switch_cpus.data      8041333                       # Total bandwidth to/from this memory (bytes/s)
system.mem_ctrls1.bw_total::switch_cpus_1.inst         3528                       # Total bandwidth to/from this memory (bytes/s)
system.mem_ctrls1.bw_total::switch_cpus_1.data      1594269                       # Total bandwidth to/from this memory (bytes/s)
system.mem_ctrls1.bw_total::total            15467648                       # Total bandwidth to/from this memory (bytes/s)
system.mem_ctrls1.readReqs                     153347                       # Number of read requests accepted
system.mem_ctrls1.writeReqs                     92192                       # Number of write requests accepted
system.mem_ctrls1.readBursts                   153347                       # Number of DRAM read bursts, including those serviced by the write queue
system.mem_ctrls1.writeBursts                   92192                       # Number of DRAM write bursts, including those merged in the write queue
system.mem_ctrls1.bytesReadDRAM               9813824                       # Total number of bytes read from DRAM
system.mem_ctrls1.bytesReadWrQ                    384                       # Total number of bytes read from write queue
system.mem_ctrls1.bytesWritten                5898624                       # Total number of bytes written to DRAM
system.mem_ctrls1.bytesReadSys                9814208                       # Total read bytes from the system interface side
system.mem_ctrls1.bytesWrittenSys             5900288                       # Total written bytes from the system interface side
system.mem_ctrls1.servicedByWrQ                     6                       # Number of DRAM read bursts serviced by the write queue
system.mem_ctrls1.mergedWrBursts                    0                       # Number of DRAM write bursts merged with an existing one
system.mem_ctrls1.neitherReadNorWriteReqs            0                       # Number of requests that are neither read nor write
system.mem_ctrls1.perBankRdBursts::0             9519                       # Per bank write bursts
system.mem_ctrls1.perBankRdBursts::1             9747                       # Per bank write bursts
system.mem_ctrls1.perBankRdBursts::2             9583                       # Per bank write bursts
system.mem_ctrls1.perBankRdBursts::3             9780                       # Per bank write bursts
system.mem_ctrls1.perBankRdBursts::4             9681                       # Per bank write bursts
system.mem_ctrls1.perBankRdBursts::5             9555                       # Per bank write bursts
system.mem_ctrls1.perBankRdBursts::6             9453                       # Per bank write bursts
system.mem_ctrls1.perBankRdBursts::7             9664                       # Per bank write bursts
system.mem_ctrls1.perBankRdBursts::8             9385                       # Per bank write bursts
system.mem_ctrls1.perBankRdBursts::9             9806                       # Per bank write bursts
system.mem_ctrls1.perBankRdBursts::10            9549                       # Per bank write bursts
system.mem_ctrls1.perBankRdBursts::11            9597                       # Per bank write bursts
system.mem_ctrls1.perBankRdBursts::12            9413                       # Per bank write bursts
system.mem_ctrls1.perBankRdBursts::13            9506                       # Per bank write bursts
system.mem_ctrls1.perBankRdBursts::14            9470                       # Per bank write bursts
system.mem_ctrls1.perBankRdBursts::15            9633                       # Per bank write bursts
system.mem_ctrls1.perBankWrBursts::0             5752                       # Per bank write bursts
system.mem_ctrls1.perBankWrBursts::1             5792                       # Per bank write bursts
system.mem_ctrls1.perBankWrBursts::2             5747                       # Per bank write bursts
system.mem_ctrls1.perBankWrBursts::3             5872                       # Per bank write bursts
system.mem_ctrls1.perBankWrBursts::4             5783                       # Per bank write bursts
system.mem_ctrls1.perBankWrBursts::5             5715                       # Per bank write bursts
system.mem_ctrls1.perBankWrBursts::6             5605                       # Per bank write bursts
system.mem_ctrls1.perBankWrBursts::7             5813                       # Per bank write bursts
system.mem_ctrls1.perBankWrBursts::8             5643                       # Per bank write bursts
system.mem_ctrls1.perBankWrBursts::9             5942                       # Per bank write bursts
system.mem_ctrls1.perBankWrBursts::10            5761                       # Per bank write bursts
system.mem_ctrls1.perBankWrBursts::11            5790                       # Per bank write bursts
system.mem_ctrls1.perBankWrBursts::12            5716                       # Per bank write bursts
system.mem_ctrls1.perBankWrBursts::13            5717                       # Per bank write bursts
system.mem_ctrls1.perBankWrBursts::14            5702                       # Per bank write bursts
system.mem_ctrls1.perBankWrBursts::15            5816                       # Per bank write bursts
system.mem_ctrls1.numRdRetry                        0                       # Number of times read queue was full causing retry
system.mem_ctrls1.numWrRetry                        0                       # Number of times write queue was full causing retry
system.mem_ctrls1.totGap                 1015958883807                       # Total gap between requests
system.mem_ctrls1.readPktSize::0                    0                       # Read request sizes (log2)
system.mem_ctrls1.readPktSize::1                    0                       # Read request sizes (log2)
system.mem_ctrls1.readPktSize::2                    0                       # Read request sizes (log2)
system.mem_ctrls1.readPktSize::3                    0                       # Read request sizes (log2)
system.mem_ctrls1.readPktSize::4                    0                       # Read request sizes (log2)
system.mem_ctrls1.readPktSize::5                    0                       # Read request sizes (log2)
system.mem_ctrls1.readPktSize::6               153347                       # Read request sizes (log2)
system.mem_ctrls1.writePktSize::0                   0                       # Write request sizes (log2)
system.mem_ctrls1.writePktSize::1                   0                       # Write request sizes (log2)
system.mem_ctrls1.writePktSize::2                   0                       # Write request sizes (log2)
system.mem_ctrls1.writePktSize::3                   0                       # Write request sizes (log2)
system.mem_ctrls1.writePktSize::4                   0                       # Write request sizes (log2)
system.mem_ctrls1.writePktSize::5                   0                       # Write request sizes (log2)
system.mem_ctrls1.writePktSize::6               92192                       # Write request sizes (log2)
system.mem_ctrls1.rdQLenPdf::0                 153257                       # What read queue length does an incoming req see
system.mem_ctrls1.rdQLenPdf::1                     83                       # What read queue length does an incoming req see
system.mem_ctrls1.rdQLenPdf::2                      1                       # What read queue length does an incoming req see
system.mem_ctrls1.rdQLenPdf::3                      0                       # What read queue length does an incoming req see
system.mem_ctrls1.rdQLenPdf::4                      0                       # What read queue length does an incoming req see
system.mem_ctrls1.rdQLenPdf::5                      0                       # What read queue length does an incoming req see
system.mem_ctrls1.rdQLenPdf::6                      0                       # What read queue length does an incoming req see
system.mem_ctrls1.rdQLenPdf::7                      0                       # What read queue length does an incoming req see
system.mem_ctrls1.rdQLenPdf::8                      0                       # What read queue length does an incoming req see
system.mem_ctrls1.rdQLenPdf::9                      0                       # What read queue length does an incoming req see
system.mem_ctrls1.rdQLenPdf::10                     0                       # What read queue length does an incoming req see
system.mem_ctrls1.rdQLenPdf::11                     0                       # What read queue length does an incoming req see
system.mem_ctrls1.rdQLenPdf::12                     0                       # What read queue length does an incoming req see
system.mem_ctrls1.rdQLenPdf::13                     0                       # What read queue length does an incoming req see
system.mem_ctrls1.rdQLenPdf::14                     0                       # What read queue length does an incoming req see
system.mem_ctrls1.rdQLenPdf::15                     0                       # What read queue length does an incoming req see
system.mem_ctrls1.rdQLenPdf::16                     0                       # What read queue length does an incoming req see
system.mem_ctrls1.rdQLenPdf::17                     0                       # What read queue length does an incoming req see
system.mem_ctrls1.rdQLenPdf::18                     0                       # What read queue length does an incoming req see
system.mem_ctrls1.rdQLenPdf::19                     0                       # What read queue length does an incoming req see
system.mem_ctrls1.rdQLenPdf::20                     0                       # What read queue length does an incoming req see
system.mem_ctrls1.rdQLenPdf::21                     0                       # What read queue length does an incoming req see
system.mem_ctrls1.rdQLenPdf::22                     0                       # What read queue length does an incoming req see
system.mem_ctrls1.rdQLenPdf::23                     0                       # What read queue length does an incoming req see
system.mem_ctrls1.rdQLenPdf::24                     0                       # What read queue length does an incoming req see
system.mem_ctrls1.rdQLenPdf::25                     0                       # What read queue length does an incoming req see
system.mem_ctrls1.rdQLenPdf::26                     0                       # What read queue length does an incoming req see
system.mem_ctrls1.rdQLenPdf::27                     0                       # What read queue length does an incoming req see
system.mem_ctrls1.rdQLenPdf::28                     0                       # What read queue length does an incoming req see
system.mem_ctrls1.rdQLenPdf::29                     0                       # What read queue length does an incoming req see
system.mem_ctrls1.rdQLenPdf::30                     0                       # What read queue length does an incoming req see
system.mem_ctrls1.rdQLenPdf::31                     0                       # What read queue length does an incoming req see
system.mem_ctrls1.wrQLenPdf::0                      2                       # What write queue length does an incoming req see
system.mem_ctrls1.wrQLenPdf::1                      2                       # What write queue length does an incoming req see
system.mem_ctrls1.wrQLenPdf::2                      2                       # What write queue length does an incoming req see
system.mem_ctrls1.wrQLenPdf::3                      2                       # What write queue length does an incoming req see
system.mem_ctrls1.wrQLenPdf::4                      2                       # What write queue length does an incoming req see
system.mem_ctrls1.wrQLenPdf::5                      2                       # What write queue length does an incoming req see
system.mem_ctrls1.wrQLenPdf::6                      2                       # What write queue length does an incoming req see
system.mem_ctrls1.wrQLenPdf::7                      2                       # What write queue length does an incoming req see
system.mem_ctrls1.wrQLenPdf::8                      2                       # What write queue length does an incoming req see
system.mem_ctrls1.wrQLenPdf::9                      2                       # What write queue length does an incoming req see
system.mem_ctrls1.wrQLenPdf::10                     2                       # What write queue length does an incoming req see
system.mem_ctrls1.wrQLenPdf::11                     2                       # What write queue length does an incoming req see
system.mem_ctrls1.wrQLenPdf::12                     2                       # What write queue length does an incoming req see
system.mem_ctrls1.wrQLenPdf::13                     2                       # What write queue length does an incoming req see
system.mem_ctrls1.wrQLenPdf::14                     2                       # What write queue length does an incoming req see
system.mem_ctrls1.wrQLenPdf::15                  4377                       # What write queue length does an incoming req see
system.mem_ctrls1.wrQLenPdf::16                  4459                       # What write queue length does an incoming req see
system.mem_ctrls1.wrQLenPdf::17                  5190                       # What write queue length does an incoming req see
system.mem_ctrls1.wrQLenPdf::18                  5209                       # What write queue length does an incoming req see
system.mem_ctrls1.wrQLenPdf::19                  5205                       # What write queue length does an incoming req see
system.mem_ctrls1.wrQLenPdf::20                  5207                       # What write queue length does an incoming req see
system.mem_ctrls1.wrQLenPdf::21                  5203                       # What write queue length does an incoming req see
system.mem_ctrls1.wrQLenPdf::22                  5209                       # What write queue length does an incoming req see
system.mem_ctrls1.wrQLenPdf::23                  5213                       # What write queue length does an incoming req see
system.mem_ctrls1.wrQLenPdf::24                  5201                       # What write queue length does an incoming req see
system.mem_ctrls1.wrQLenPdf::25                  5205                       # What write queue length does an incoming req see
system.mem_ctrls1.wrQLenPdf::26                  5251                       # What write queue length does an incoming req see
system.mem_ctrls1.wrQLenPdf::27                  5229                       # What write queue length does an incoming req see
system.mem_ctrls1.wrQLenPdf::28                  5197                       # What write queue length does an incoming req see
system.mem_ctrls1.wrQLenPdf::29                  5197                       # What write queue length does an incoming req see
system.mem_ctrls1.wrQLenPdf::30                  5198                       # What write queue length does an incoming req see
system.mem_ctrls1.wrQLenPdf::31                  5195                       # What write queue length does an incoming req see
system.mem_ctrls1.wrQLenPdf::32                  5195                       # What write queue length does an incoming req see
system.mem_ctrls1.wrQLenPdf::33                    22                       # What write queue length does an incoming req see
system.mem_ctrls1.wrQLenPdf::34                     0                       # What write queue length does an incoming req see
system.mem_ctrls1.wrQLenPdf::35                     0                       # What write queue length does an incoming req see
system.mem_ctrls1.wrQLenPdf::36                     0                       # What write queue length does an incoming req see
system.mem_ctrls1.wrQLenPdf::37                     0                       # What write queue length does an incoming req see
system.mem_ctrls1.wrQLenPdf::38                     0                       # What write queue length does an incoming req see
system.mem_ctrls1.wrQLenPdf::39                     0                       # What write queue length does an incoming req see
system.mem_ctrls1.wrQLenPdf::40                     0                       # What write queue length does an incoming req see
system.mem_ctrls1.wrQLenPdf::41                     0                       # What write queue length does an incoming req see
system.mem_ctrls1.wrQLenPdf::42                     0                       # What write queue length does an incoming req see
system.mem_ctrls1.wrQLenPdf::43                     0                       # What write queue length does an incoming req see
system.mem_ctrls1.wrQLenPdf::44                     0                       # What write queue length does an incoming req see
system.mem_ctrls1.wrQLenPdf::45                     0                       # What write queue length does an incoming req see
system.mem_ctrls1.wrQLenPdf::46                     0                       # What write queue length does an incoming req see
system.mem_ctrls1.wrQLenPdf::47                     0                       # What write queue length does an incoming req see
system.mem_ctrls1.wrQLenPdf::48                     0                       # What write queue length does an incoming req see
system.mem_ctrls1.wrQLenPdf::49                     0                       # What write queue length does an incoming req see
system.mem_ctrls1.wrQLenPdf::50                     0                       # What write queue length does an incoming req see
system.mem_ctrls1.wrQLenPdf::51                     0                       # What write queue length does an incoming req see
system.mem_ctrls1.wrQLenPdf::52                     0                       # What write queue length does an incoming req see
system.mem_ctrls1.wrQLenPdf::53                     0                       # What write queue length does an incoming req see
system.mem_ctrls1.wrQLenPdf::54                     0                       # What write queue length does an incoming req see
system.mem_ctrls1.wrQLenPdf::55                     0                       # What write queue length does an incoming req see
system.mem_ctrls1.wrQLenPdf::56                     0                       # What write queue length does an incoming req see
system.mem_ctrls1.wrQLenPdf::57                     0                       # What write queue length does an incoming req see
system.mem_ctrls1.wrQLenPdf::58                     0                       # What write queue length does an incoming req see
system.mem_ctrls1.wrQLenPdf::59                     0                       # What write queue length does an incoming req see
system.mem_ctrls1.wrQLenPdf::60                     0                       # What write queue length does an incoming req see
system.mem_ctrls1.wrQLenPdf::61                     0                       # What write queue length does an incoming req see
system.mem_ctrls1.wrQLenPdf::62                     0                       # What write queue length does an incoming req see
system.mem_ctrls1.wrQLenPdf::63                     0                       # What write queue length does an incoming req see
system.mem_ctrls1.bytesPerActivate::samples       241657                       # Bytes accessed per row activation
system.mem_ctrls1.bytesPerActivate::mean    65.018568                       # Bytes accessed per row activation
system.mem_ctrls1.bytesPerActivate::gmean    64.668438                       # Bytes accessed per row activation
system.mem_ctrls1.bytesPerActivate::stdev     9.864317                       # Bytes accessed per row activation
system.mem_ctrls1.bytesPerActivate::64-127       238204     98.57%     98.57% # Bytes accessed per row activation
system.mem_ctrls1.bytesPerActivate::128-191         3288      1.36%     99.93% # Bytes accessed per row activation
system.mem_ctrls1.bytesPerActivate::192-255           74      0.03%     99.96% # Bytes accessed per row activation
system.mem_ctrls1.bytesPerActivate::256-319           40      0.02%     99.98% # Bytes accessed per row activation
system.mem_ctrls1.bytesPerActivate::320-383           16      0.01%     99.99% # Bytes accessed per row activation
system.mem_ctrls1.bytesPerActivate::384-447           16      0.01%     99.99% # Bytes accessed per row activation
system.mem_ctrls1.bytesPerActivate::448-511            7      0.00%    100.00% # Bytes accessed per row activation
system.mem_ctrls1.bytesPerActivate::512-575            4      0.00%    100.00% # Bytes accessed per row activation
system.mem_ctrls1.bytesPerActivate::576-639            4      0.00%    100.00% # Bytes accessed per row activation
system.mem_ctrls1.bytesPerActivate::640-703            1      0.00%    100.00% # Bytes accessed per row activation
system.mem_ctrls1.bytesPerActivate::704-767            1      0.00%    100.00% # Bytes accessed per row activation
system.mem_ctrls1.bytesPerActivate::768-831            1      0.00%    100.00% # Bytes accessed per row activation
system.mem_ctrls1.bytesPerActivate::960-1023            1      0.00%    100.00% # Bytes accessed per row activation
system.mem_ctrls1.bytesPerActivate::total       241657                       # Bytes accessed per row activation
system.mem_ctrls1.rdPerTurnAround::samples         5196                       # Reads before turning the bus around for writes
system.mem_ctrls1.rdPerTurnAround::mean     29.508853                       # Reads before turning the bus around for writes
system.mem_ctrls1.rdPerTurnAround::gmean    23.375439                       # Reads before turning the bus around for writes
system.mem_ctrls1.rdPerTurnAround::stdev   323.639349                       # Reads before turning the bus around for writes
system.mem_ctrls1.rdPerTurnAround::0-1023         5195     99.98%     99.98% # Reads before turning the bus around for writes
system.mem_ctrls1.rdPerTurnAround::22528-23551            1      0.02%    100.00% # Reads before turning the bus around for writes
system.mem_ctrls1.rdPerTurnAround::total         5196                       # Reads before turning the bus around for writes
system.mem_ctrls1.wrPerTurnAround::samples         5196                       # Writes before turning the bus around for reads
system.mem_ctrls1.wrPerTurnAround::mean     17.737875                       # Writes before turning the bus around for reads
system.mem_ctrls1.wrPerTurnAround::gmean    17.721365                       # Writes before turning the bus around for reads
system.mem_ctrls1.wrPerTurnAround::stdev     0.747789                       # Writes before turning the bus around for reads
system.mem_ctrls1.wrPerTurnAround::16             743     14.30%     14.30% # Writes before turning the bus around for reads
system.mem_ctrls1.wrPerTurnAround::17              73      1.40%     15.70% # Writes before turning the bus around for reads
system.mem_ctrls1.wrPerTurnAround::18            4192     80.68%     96.38% # Writes before turning the bus around for reads
system.mem_ctrls1.wrPerTurnAround::19             180      3.46%     99.85% # Writes before turning the bus around for reads
system.mem_ctrls1.wrPerTurnAround::20               7      0.13%     99.98% # Writes before turning the bus around for reads
system.mem_ctrls1.wrPerTurnAround::21               1      0.02%    100.00% # Writes before turning the bus around for reads
system.mem_ctrls1.wrPerTurnAround::total         5196                       # Writes before turning the bus around for reads
system.mem_ctrls1.totQLat                 27464712062                       # Total ticks spent queuing
system.mem_ctrls1.totMemAccLat            30339855812                       # Total ticks spent from burst creation until serviced by the DRAM
system.mem_ctrls1.totBusLat                 766705000                       # Total ticks spent in databus transfers
system.mem_ctrls1.avgQLat                   179108.73                       # Average queueing delay per DRAM burst
system.mem_ctrls1.avgBusLat                   5000.00                       # Average bus latency per DRAM burst
system.mem_ctrls1.avgMemAccLat              197858.73                       # Average memory access latency per DRAM burst
system.mem_ctrls1.avgRdBW                        9.66                       # Average DRAM read bandwidth in MiByte/s
system.mem_ctrls1.avgWrBW                        5.81                       # Average achieved write bandwidth in MiByte/s
system.mem_ctrls1.avgRdBWSys                     9.66                       # Average system read bandwidth in MiByte/s
system.mem_ctrls1.avgWrBWSys                     5.81                       # Average system write bandwidth in MiByte/s
system.mem_ctrls1.peakBW                     12800.00                       # Theoretical peak bandwidth in MiByte/s
system.mem_ctrls1.busUtil                        0.12                       # Data bus utilization in percentage
system.mem_ctrls1.busUtilRead                    0.08                       # Data bus utilization in percentage for reads
system.mem_ctrls1.busUtilWrite                   0.05                       # Data bus utilization in percentage for writes
system.mem_ctrls1.avgRdQLen                      1.00                       # Average read queue length when enqueuing
system.mem_ctrls1.avgWrQLen                     21.07                       # Average write queue length when enqueuing
system.mem_ctrls1.readRowHits                    3353                       # Number of row buffer hits during reads
system.mem_ctrls1.writeRowHits                    493                       # Number of row buffer hits during writes
system.mem_ctrls1.readRowHitRate                 2.19                       # Row buffer hit rate for reads
system.mem_ctrls1.writeRowHitRate                0.53                       # Row buffer hit rate for writes
system.mem_ctrls1.avgGap                   4137668.08                       # Average gap between requests
system.mem_ctrls1.pageHitRate                    1.57                       # Row buffer hit rate, read and write combined
system.mem_ctrls1_0.actEnergy               863711520                       # Energy for activate commands per rank (pJ)
system.mem_ctrls1_0.preEnergy               459065970                       # Energy for precharge commands per rank (pJ)
system.mem_ctrls1_0.readEnergy              549651480                       # Energy for read commands per rank (pJ)
system.mem_ctrls1_0.writeEnergy             240532380                       # Energy for write commands per rank (pJ)
system.mem_ctrls1_0.refreshEnergy        58271559840.000015                       # Energy for refresh commands per rank (pJ)
system.mem_ctrls1_0.actBackEnergy         18816052830                       # Energy for active background per rank (pJ)
system.mem_ctrls1_0.preBackEnergy          3313137600                       # Energy for precharge background per rank (pJ)
system.mem_ctrls1_0.actPowerDownEnergy   120428176140                       # Energy for active power-down per rank (pJ)
system.mem_ctrls1_0.prePowerDownEnergy    96694395840                       # Energy for precharge power-down per rank (pJ)
system.mem_ctrls1_0.selfRefreshEnergy    121176386820                       # Energy for self refresh per rank (pJ)
system.mem_ctrls1_0.totalEnergy          420837417030                       # Total energy per rank (pJ)
system.mem_ctrls1_0.averagePower           414.226779                       # Core power per rank (mW)
system.mem_ctrls1_0.totalIdleTime        966009809520                       # Total Idle time Per DRAM Rank
system.mem_ctrls1_0.memoryStateTime::IDLE   6560918932                       # Time in different power states
system.mem_ctrls1_0.memoryStateTime::REF  24794562000                       # Time in different power states
system.mem_ctrls1_0.memoryStateTime::SREF 450107430115                       # Time in different power states
system.mem_ctrls1_0.memoryStateTime::PRE_PDN 251808162825                       # Time in different power states
system.mem_ctrls1_0.memoryStateTime::ACT  18590958295                       # Time in different power states
system.mem_ctrls1_0.memoryStateTime::ACT_PDN 264096940218                       # Time in different power states
system.mem_ctrls1_1.actEnergy               861748020                       # Energy for activate commands per rank (pJ)
system.mem_ctrls1_1.preEnergy               458022345                       # Energy for precharge commands per rank (pJ)
system.mem_ctrls1_1.readEnergy              545203260                       # Energy for read commands per rank (pJ)
system.mem_ctrls1_1.writeEnergy             240574140                       # Energy for write commands per rank (pJ)
system.mem_ctrls1_1.refreshEnergy        58061352960.000015                       # Energy for refresh commands per rank (pJ)
system.mem_ctrls1_1.actBackEnergy         18880892040                       # Energy for active background per rank (pJ)
system.mem_ctrls1_1.preBackEnergy          3306353280                       # Energy for precharge background per rank (pJ)
system.mem_ctrls1_1.actPowerDownEnergy   119764795320                       # Energy for active power-down per rank (pJ)
system.mem_ctrls1_1.prePowerDownEnergy    96568295040                       # Energy for precharge power-down per rank (pJ)
system.mem_ctrls1_1.selfRefreshEnergy    121497728265                       # Energy for self refresh per rank (pJ)
system.mem_ctrls1_1.totalEnergy          420209538420                       # Total energy per rank (pJ)
system.mem_ctrls1_1.averagePower           413.608765                       # Core power per rank (mW)
system.mem_ctrls1_1.totalIdleTime        965888182772                       # Total Idle time Per DRAM Rank
system.mem_ctrls1_1.memoryStateTime::IDLE   6539061058                       # Time in different power states
system.mem_ctrls1_1.memoryStateTime::REF  24704862000                       # Time in different power states
system.mem_ctrls1_1.memoryStateTime::SREF 451766477084                       # Time in different power states
system.mem_ctrls1_1.memoryStateTime::PRE_PDN 251479912647                       # Time in different power states
system.mem_ctrls1_1.memoryStateTime::ACT  18826403224                       # Time in different power states
system.mem_ctrls1_1.memoryStateTime::ACT_PDN 262642256372                       # Time in different power states
system.pwrStateResidencyTicks::UNDEFINED 400904928578853                       # Cumulative time (in ticks) in various power states
system.cpu.branchPred.lookups                      33                       # Number of BP lookups
system.cpu.branchPred.condPredicted                32                       # Number of conditional branches predicted
system.cpu.branchPred.condIncorrect                 5                       # Number of conditional branches incorrect
system.cpu.branchPred.BTBLookups                    0                       # Number of BTB lookups
system.cpu.branchPred.BTBHits                       0                       # Number of BTB hits
system.cpu.branchPred.BTBCorrect                    0                       # Number of correct BTB predictions (this stat may not work properly.
system.cpu.branchPred.BTBHitPct                   nan                       # BTB Hit Percentage
system.cpu.branchPred.usedRAS                       1                       # Number of times the RAS was used to get a target.
system.cpu.branchPred.RASInCorrect                  0                       # Number of incorrect RAS predictions.
system.cpu.branchPred.indirectLookups               0                       # Number of indirect predictor lookups.
system.cpu.branchPred.indirectHits                  0                       # Number of indirect target hits.
system.cpu.branchPred.indirectMisses                0                       # Number of indirect misses.
system.cpu.branchPredindirectMispredicted            0                       # Number of mispredicted indirect branches.
system.cpu_voltage_domain.voltage                   1                       # Voltage in Volts
system.cpu_clk_domain.clock                       333                       # Clock period in ticks
system.cpu.dtb.fetch_hits                           0                       # ITB hits
system.cpu.dtb.fetch_misses                         0                       # ITB misses
system.cpu.dtb.fetch_acv                            0                       # ITB acv
system.cpu.dtb.fetch_accesses                       0                       # ITB accesses
system.cpu.dtb.read_hits                            7                       # DTB read hits
system.cpu.dtb.read_misses                          0                       # DTB read misses
system.cpu.dtb.read_acv                             0                       # DTB read access violations
system.cpu.dtb.read_accesses                        7                       # DTB read accesses
system.cpu.dtb.write_hits                           0                       # DTB write hits
system.cpu.dtb.write_misses                         0                       # DTB write misses
system.cpu.dtb.write_acv                            0                       # DTB write access violations
system.cpu.dtb.write_accesses                       0                       # DTB write accesses
system.cpu.dtb.data_hits                            7                       # DTB hits
system.cpu.dtb.data_misses                          0                       # DTB misses
system.cpu.dtb.data_acv                             0                       # DTB access violations
system.cpu.dtb.data_accesses                        7                       # DTB accesses
system.cpu.itb.fetch_hits                          20                       # ITB hits
system.cpu.itb.fetch_misses                         1                       # ITB misses
system.cpu.itb.fetch_acv                            0                       # ITB acv
system.cpu.itb.fetch_accesses                      21                       # ITB accesses
system.cpu.itb.read_hits                            0                       # DTB read hits
system.cpu.itb.read_misses                          0                       # DTB read misses
system.cpu.itb.read_acv                             0                       # DTB read access violations
system.cpu.itb.read_accesses                        0                       # DTB read accesses
system.cpu.itb.write_hits                           0                       # DTB write hits
system.cpu.itb.write_misses                         0                       # DTB write misses
system.cpu.itb.write_acv                            0                       # DTB write access violations
system.cpu.itb.write_accesses                       0                       # DTB write accesses
system.cpu.itb.data_hits                            0                       # DTB hits
system.cpu.itb.data_misses                          0                       # DTB misses
system.cpu.itb.data_acv                             0                       # DTB access violations
system.cpu.itb.data_accesses                        0                       # DTB accesses
system.cpu.workload.num_syscalls                    0                       # Number of system calls
system.cpu.pwrStateResidencyTicks::ON    1015958972385                       # Cumulative time (in ticks) in various power states
system.cpu.numCycles                             1080                       # number of cpu cycles simulated
system.cpu.numWorkItemsStarted                      0                       # number of work items this cpu started
system.cpu.numWorkItemsCompleted                    0                       # number of work items this cpu completed
system.cpu.fetch.icacheStallCycles                 83                       # Number of cycles fetch is stalled on an Icache miss
system.cpu.fetch.Insts                            197                       # Number of instructions fetch has processed
system.cpu.fetch.Branches                          33                       # Number of branches that fetch encountered
system.cpu.fetch.predictedBranches                  1                       # Number of branches that fetch has predicted taken
system.cpu.fetch.Cycles                            27                       # Number of cycles fetch has run and was not squashing or blocked
system.cpu.fetch.SquashCycles                      13                       # Number of cycles fetch has spent squashing
system.cpu.fetch.PendingDrainCycles                23                       # Number of cycles fetch has spent waiting on pipes to drain
system.cpu.fetch.PendingTrapStallCycles            13                       # Number of stall cycles due to pending traps
system.cpu.fetch.CacheLines                        20                       # Number of cache lines fetched
system.cpu.fetch.IcacheSquashes                     6                       # Number of outstanding Icache misses that were squashed
system.cpu.fetch.rateDist::samples                152                       # Number of instructions fetched each cycle (Total)
system.cpu.fetch.rateDist::mean              1.296053                       # Number of instructions fetched each cycle (Total)
system.cpu.fetch.rateDist::stdev             2.885999                       # Number of instructions fetched each cycle (Total)
system.cpu.fetch.rateDist::underflows               0      0.00%      0.00% # Number of instructions fetched each cycle (Total)
system.cpu.fetch.rateDist::0                      125     82.24%     82.24% # Number of instructions fetched each cycle (Total)
system.cpu.fetch.rateDist::1                        0      0.00%     82.24% # Number of instructions fetched each cycle (Total)
system.cpu.fetch.rateDist::2                        1      0.66%     82.89% # Number of instructions fetched each cycle (Total)
system.cpu.fetch.rateDist::3                        2      1.32%     84.21% # Number of instructions fetched each cycle (Total)
system.cpu.fetch.rateDist::4                        0      0.00%     84.21% # Number of instructions fetched each cycle (Total)
[...]
system.switch_cpus_1.iq.fu_busy_rate         0.028122                       # FU busy rate (busy events/executed inst)
system.switch_cpus_1.iq.int_inst_queue_reads    610303301                       # Number of integer instruction queue reads
system.switch_cpus_1.iq.int_inst_queue_writes    312303496                       # Number of integer instruction queue writes
system.switch_cpus_1.iq.int_inst_queue_wakeup_accesses    229040533                       # Number of integer instruction queue wakeup accesses
system.switch_cpus_1.iq.fp_inst_queue_reads      2435869                       # Number of floating instruction queue reads
system.switch_cpus_1.iq.fp_inst_queue_writes      1228136                       # Number of floating instruction queue writes
system.switch_cpus_1.iq.fp_inst_queue_wakeup_accesses      1200320                       # Number of floating instruction queue wakeup accesses
system.switch_cpus_1.iq.int_alu_accesses    242342074                       # Number of integer alu accesses
system.switch_cpus_1.iq.fp_alu_accesses       1226888                       # Number of floating point alu accesses
system.switch_cpus_1.iew.lsq.thread0.forwLoads      1372725                       # Number of loads that had data forwarded from stores
system.switch_cpus_1.iew.lsq.thread0.invAddrLoads            0                       # Number of loads ignored due to an invalid address
system.switch_cpus_1.iew.lsq.thread0.squashedLoads     12952794                       # Number of loads squashed
system.switch_cpus_1.iew.lsq.thread0.ignoredResponses         9875                       # Number of memory responses ignored because the instruction is squashed
system.switch_cpus_1.iew.lsq.thread0.memOrderViolation        11265                       # Number of memory ordering violations
system.switch_cpus_1.iew.lsq.thread0.squashedStores      3887755                       # Number of stores squashed
system.switch_cpus_1.iew.lsq.thread0.invAddrSwpfs            0                       # Number of software prefetches ignored due to an invalid address
system.switch_cpus_1.iew.lsq.thread0.blockedLoads            0                       # Number of blocked loads due to partial load-store forwarding
system.switch_cpus_1.iew.lsq.thread0.rescheduledLoads            0                       # Number of loads that were rescheduled
system.switch_cpus_1.iew.lsq.thread0.cacheBlocked         3773                       # Number of times an access to memory failed due to the cache being blocked
system.switch_cpus_1.iew.iewIdleCycles              0                       # Number of cycles IEW is idle
system.switch_cpus_1.iew.iewSquashCycles      2465766                       # Number of cycles IEW is squashing
system.switch_cpus_1.iew.iewBlockCycles       5773218                       # Number of cycles IEW is blocking
system.switch_cpus_1.iew.iewUnblockCycles      2252828                       # Number of cycles IEW is unblocking
system.switch_cpus_1.iew.iewDispatchedInsts    261095352                       # Number of instructions dispatched to IQ
system.switch_cpus_1.iew.iewDispSquashedInsts       980915                       # Number of squashed instructions skipped by dispatch
system.switch_cpus_1.iew.iewDispLoadInsts     61785239                       # Number of dispatched load instructions
system.switch_cpus_1.iew.iewDispStoreInsts     20266330                       # Number of dispatched store instructions
system.switch_cpus_1.iew.iewDispNonSpecInsts            0                       # Number of dispatched non-speculative instructions
system.switch_cpus_1.iew.iewIQFullEvents         5535                       # Number of times the IQ has become full, causing a stall
system.switch_cpus_1.iew.iewLSQFullEvents      2254557                       # Number of times the LSQ has become full, causing a stall
system.switch_cpus_1.iew.memOrderViolationEvents        11265                       # Number of memory order violations
system.switch_cpus_1.iew.predictedTakenIncorrect      1437898                       # Number of branches that were predicted taken incorrectly
system.switch_cpus_1.iew.predictedNotTakenIncorrect      1362477                       # Number of branches that were predicted not taken incorrectly
system.switch_cpus_1.iew.branchMispredicts      2800375                       # Number of branch mispredicts detected at execute
system.switch_cpus_1.iew.iewExecutedInsts    233409248                       # Number of executed instructions
system.switch_cpus_1.iew.iewExecLoadInsts     57733310                       # Number of load instructions executed
system.switch_cpus_1.iew.iewExecSquashedInsts      3651928                       # Number of squashed instructions skipped in execute
system.switch_cpus_1.iew.exec_swp                   0                       # number of swp insts executed
system.switch_cpus_1.iew.exec_nop             4335041                       # number of nop insts executed
system.switch_cpus_1.iew.exec_refs           76411710                       # number of memory reference insts executed
system.switch_cpus_1.iew.exec_branches       41314512                       # Number of branches executed
system.switch_cpus_1.iew.exec_stores         18678400                       # Number of stores executed
system.switch_cpus_1.iew.exec_rate           1.768710                       # Inst execution rate
system.switch_cpus_1.iew.wb_sent            231531964                       # cumulative count of insts sent to commit
system.switch_cpus_1.iew.wb_count           230240853                       # cumulative count of insts written-back
system.switch_cpus_1.iew.wb_producers       142117163                       # num instructions producing a value
system.switch_cpus_1.iew.wb_consumers       181358834                       # num instructions consuming a value
system.switch_cpus_1.iew.wb_rate             1.744700                       # insts written-back per cycle
system.switch_cpus_1.iew.wb_fanout           0.783624                       # average fanout of values written-back
system.switch_cpus_1.commit.commitSquashedInsts     53852868                       # The number of squashed insts skipped by commit
system.switch_cpus_1.commit.branchMispredicts      2335576                       # The number of times a branch was mispredicted
system.switch_cpus_1.commit.committed_per_cycle::samples    123445382                       # Number of insts commited each cycle
system.switch_cpus_1.commit.committed_per_cycle::mean     1.647431                       # Number of insts commited each cycle
system.switch_cpus_1.commit.committed_per_cycle::stdev     2.517909                       # Number of insts commited each cycle
system.switch_cpus_1.commit.committed_per_cycle::underflows            0      0.00%      0.00% # Number of insts commited each cycle
system.switch_cpus_1.commit.committed_per_cycle::0     63536066     51.47%     51.47% # Number of insts commited each cycle
system.switch_cpus_1.commit.committed_per_cycle::1     23505167     19.04%     70.51% # Number of insts commited each cycle
system.switch_cpus_1.commit.committed_per_cycle::2      9282413      7.52%     78.03% # Number of insts commited each cycle
system.switch_cpus_1.commit.committed_per_cycle::3      3802850      3.08%     81.11% # Number of insts commited each cycle
system.switch_cpus_1.commit.committed_per_cycle::4      4264030      3.45%     84.56% # Number of insts commited each cycle
system.switch_cpus_1.commit.committed_per_cycle::5      4189395      3.39%     87.96% # Number of insts commited each cycle
system.switch_cpus_1.commit.committed_per_cycle::6      2008069      1.63%     89.58% # Number of insts commited each cycle
system.switch_cpus_1.commit.committed_per_cycle::7      3021465      2.45%     92.03% # Number of insts commited each cycle
system.switch_cpus_1.commit.committed_per_cycle::8      9835927      7.97%    100.00% # Number of insts commited each cycle
system.switch_cpus_1.commit.committed_per_cycle::overflows            0      0.00%    100.00% # Number of insts commited each cycle
system.switch_cpus_1.commit.committed_per_cycle::min_value            0                       # Number of insts commited each cycle
system.switch_cpus_1.commit.committed_per_cycle::max_value            8                       # Number of insts commited each cycle
system.switch_cpus_1.commit.committed_per_cycle::total    123445382                       # Number of insts commited each cycle
system.switch_cpus_1.commit.committedInsts    203367723                       # Number of instructions committed
system.switch_cpus_1.commit.committedOps    203367723                       # Number of ops (including micro ops) committed
system.switch_cpus_1.commit.swp_count               0                       # Number of s/w prefetches committed
system.switch_cpus_1.commit.refs             65211012                       # Number of memory references committed
system.switch_cpus_1.commit.loads            48832439                       # Number of loads committed
system.switch_cpus_1.commit.membars                 0                       # Number of memory barriers committed
system.switch_cpus_1.commit.branches         35849890                       # Number of branches committed
system.switch_cpus_1.commit.fp_insts          1191360                       # Number of committed floating point instructions.
system.switch_cpus_1.commit.int_insts       197171622                       # Number of committed integer instructions.
system.switch_cpus_1.commit.function_calls      1737440                       # Number of function calls committed.
system.switch_cpus_1.commit.op_class_0::No_OpClass      3526571      1.73%      1.73% # Class of committed instruction
system.switch_cpus_1.commit.op_class_0::IntAlu    133820732     65.80%     67.54% # Class of committed instruction
system.switch_cpus_1.commit.op_class_0::IntMult        94592      0.05%     67.58% # Class of committed instruction
system.switch_cpus_1.commit.op_class_0::IntDiv            0      0.00%     67.58% # Class of committed instruction
system.switch_cpus_1.commit.op_class_0::FloatAdd       397120      0.20%     67.78% # Class of committed instruction
system.switch_cpus_1.commit.op_class_0::FloatCmp            0      0.00%     67.78% # Class of committed instruction
system.switch_cpus_1.commit.op_class_0::FloatCvt       238272      0.12%     67.90% # Class of committed instruction
system.switch_cpus_1.commit.op_class_0::FloatMult            0      0.00%     67.90% # Class of committed instruction
system.switch_cpus_1.commit.op_class_0::FloatMultAcc            0      0.00%     67.90% # Class of committed instruction
system.switch_cpus_1.commit.op_class_0::FloatDiv        79424      0.04%     67.93% # Class of committed instruction
system.switch_cpus_1.commit.op_class_0::FloatMisc            0      0.00%     67.93% # Class of committed instruction
system.switch_cpus_1.commit.op_class_0::FloatSqrt            0      0.00%     67.93% # Class of committed instruction
system.switch_cpus_1.commit.op_class_0::SimdAdd            0      0.00%     67.93% # Class of committed instruction
system.switch_cpus_1.commit.op_class_0::SimdAddAcc            0      0.00%     67.93% # Class of committed instruction
system.switch_cpus_1.commit.op_class_0::SimdAlu            0      0.00%     67.93% # Class of committed instruction
system.switch_cpus_1.commit.op_class_0::SimdCmp            0      0.00%     67.93% # Class of committed instruction
system.switch_cpus_1.commit.op_class_0::SimdCvt            0      0.00%     67.93% # Class of committed instruction
system.switch_cpus_1.commit.op_class_0::SimdMisc            0      0.00%     67.93% # Class of committed instruction
system.switch_cpus_1.commit.op_class_0::SimdMult            0      0.00%     67.93% # Class of committed instruction
system.switch_cpus_1.commit.op_class_0::SimdMultAcc            0      0.00%     67.93% # Class of committed instruction
system.switch_cpus_1.commit.op_class_0::SimdShift            0      0.00%     67.93% # Class of committed instruction
system.switch_cpus_1.commit.op_class_0::SimdShiftAcc            0      0.00%     67.93% # Class of committed instruction
system.switch_cpus_1.commit.op_class_0::SimdSqrt            0      0.00%     67.93% # Class of committed instruction
system.switch_cpus_1.commit.op_class_0::SimdFloatAdd            0      0.00%     67.93% # Class of committed instruction
system.switch_cpus_1.commit.op_class_0::SimdFloatAlu            0      0.00%     67.93% # Class of committed instruction
system.switch_cpus_1.commit.op_class_0::SimdFloatCmp            0      0.00%     67.93% # Class of committed instruction
system.switch_cpus_1.commit.op_class_0::SimdFloatCvt            0      0.00%     67.93% # Class of committed instruction
system.switch_cpus_1.commit.op_class_0::SimdFloatDiv            0      0.00%     67.93% # Class of committed instruction
system.switch_cpus_1.commit.op_class_0::SimdFloatMisc            0      0.00%     67.93% # Class of committed instruction
system.switch_cpus_1.commit.op_class_0::SimdFloatMult            0      0.00%     67.93% # Class of committed instruction
system.switch_cpus_1.commit.op_class_0::SimdFloatMultAcc            0      0.00%     67.93% # Class of committed instruction
system.switch_cpus_1.commit.op_class_0::SimdFloatSqrt            0      0.00%     67.93% # Class of committed instruction
system.switch_cpus_1.commit.op_class_0::MemRead     48594167     23.89%     91.83% # Class of committed instruction
system.switch_cpus_1.commit.op_class_0::MemWrite     16140301      7.94%     99.77% # Class of committed instruction
system.switch_cpus_1.commit.op_class_0::FloatMemRead       238272      0.12%     99.88% # Class of committed instruction
system.switch_cpus_1.commit.op_class_0::FloatMemWrite       238272      0.12%    100.00% # Class of committed instruction
system.switch_cpus_1.commit.op_class_0::IprAccess            0      0.00%    100.00% # Class of committed instruction
system.switch_cpus_1.commit.op_class_0::InstPrefetch            0      0.00%    100.00% # Class of committed instruction
system.switch_cpus_1.commit.op_class_0::total    203367723                       # Class of committed instruction
system.switch_cpus_1.commit.bw_lim_events      9835927                       # number cycles where commit BW limit reached
system.switch_cpus_1.rob.rob_reads          369247374                       # The number of ROB reads
system.switch_cpus_1.rob.rob_writes         522684417                       # The number of ROB writes
system.switch_cpus_1.timesIdled                 74807                       # Number of times that the entire CPU went into an idle state and unscheduled itself
system.switch_cpus_1.idleCycles                352776                       # Total number of cycles that the CPU has spent unscheduled due to idling
system.switch_cpus_1.committedInsts         200000000                       # Number of Instructions Simulated
system.switch_cpus_1.committedOps           200000000                       # Number of Ops (including micro ops) Simulated
system.switch_cpus_1.cpi                     0.659829                       # CPI: Cycles Per Instruction
system.switch_cpus_1.cpi_total               0.659829                       # CPI: Total CPI of All Threads
system.switch_cpus_1.ipc                     1.515544                       # IPC: Instructions Per Cycle
system.switch_cpus_1.ipc_total               1.515544                       # IPC: Total IPC of All Threads
system.switch_cpus_1.int_regfile_reads      304050109                       # number of integer regfile reads
system.switch_cpus_1.int_regfile_writes     172428047                       # number of integer regfile writes
system.switch_cpus_1.fp_regfile_reads          807497                       # number of floating regfile reads
system.switch_cpus_1.fp_regfile_writes         794272                       # number of floating regfile writes
system.switch_cpus_1.misc_regfile_reads        158848                       # number of misc regfile reads
system.switch_cpus_1.misc_regfile_writes        79424                       # number of misc regfile writes
system.tol3bus.snoop_filter.tot_requests       709528                       # Total number of requests made to the snoop filter.
system.tol3bus.snoop_filter.hit_single_requests       352500                       # Number of requests hitting in the snoop filter with a single holder of the requested data.
system.tol3bus.snoop_filter.hit_multi_requests            0                       # Number of requests hitting in the snoop filter with multiple (>1) holders of the requested data.
system.tol3bus.snoop_filter.tot_snoops           2417                       # Total number of snoops made to the snoop filter.
system.tol3bus.snoop_filter.hit_single_snoops         2417                       # Number of snoops hitting in the snoop filter with a single holder of the requested data.
system.tol3bus.snoop_filter.hit_multi_snoops            0                       # Number of snoops hitting in the snoop filter with multiple (>1) holders of the requested data.
system.tol3bus.pwrStateResidencyTicks::UNDEFINED 400904928578853                       # Cumulative time (in ticks) in various power states
system.tol3bus.trans_dist::ReadResp            323769                       # Transaction distribution
system.tol3bus.trans_dist::WritebackDirty       449800                       # Transaction distribution
system.tol3bus.trans_dist::CleanEvict          144307                       # Transaction distribution
system.tol3bus.trans_dist::ReadExReq            33259                       # Transaction distribution
system.tol3bus.trans_dist::ReadExResp           33259                       # Transaction distribution
system.tol3bus.trans_dist::ReadSharedReq       323769                       # Transaction distribution
system.tol3bus.pkt_count_system.cpu.l2.mem_side::system.l3.cpu_side      1066556                       # Packet count per connected master and slave (bytes)
system.tol3bus.pkt_size_system.cpu.l2.mem_side::system.l3.cpu_side     39869632                       # Cumulative packet size per connected master and slave (bytes)
system.tol3bus.snoops                          241607                       # Total snoops (count)
system.tol3bus.snoopTraffic                  11767360                       # Total snoop traffic (bytes)
system.tol3bus.snoop_fanout::samples           598635                       # Request fanout histogram
system.tol3bus.snoop_fanout::mean            0.004038                       # Request fanout histogram
system.tol3bus.snoop_fanout::stdev           0.063413                       # Request fanout histogram
system.tol3bus.snoop_fanout::underflows             0      0.00%      0.00% # Request fanout histogram
system.tol3bus.snoop_fanout::0                 596218     99.60%     99.60% # Request fanout histogram
system.tol3bus.snoop_fanout::1                   2417      0.40%    100.00% # Request fanout histogram
system.tol3bus.snoop_fanout::overflows              0      0.00%    100.00% # Request fanout histogram
system.tol3bus.snoop_fanout::min_value              0                       # Request fanout histogram
system.tol3bus.snoop_fanout::max_value              1                       # Request fanout histogram
system.tol3bus.snoop_fanout::total             598635                       # Request fanout histogram
system.tol3bus.reqLayer0.occupancy          324829179                       # Layer occupancy (ticks)
system.tol3bus.reqLayer0.utilization              0.0                       # Layer utilization (%)
system.tol3bus.respLayer0.occupancy         237780648                       # Layer occupancy (ticks)
system.tol3bus.respLayer0.utilization             0.0                       # Layer utilization (%)

---------- End Simulation Statistics   ----------
