
---------- Begin Simulation Statistics ----------
sim_seconds                                  1.034053                       # Number of seconds simulated
sim_ticks                                1034053480431                       # Number of ticks simulated
final_tick                               111360272234688                       # Number of ticks from beginning of simulation (restored from checkpoints and never reset)
sim_freq                                 1000000000000                       # Frequency of simulated ticks
host_inst_rate                                 556233                       # Simulator instruction rate (inst/s)
host_op_rate                                   556233                       # Simulator op (including micro ops) rate (op/s)
host_tick_rate                              383450105                       # Simulator tick rate (ticks/s)
host_mem_usage                                2384320                       # Number of bytes of host memory used
host_seconds                                  2696.71                       # Real time elapsed on the host
sim_insts                                  1500000005                       # Number of instructions simulated
sim_ops                                    1500000005                       # Number of ops (including micro ops) simulated
system.voltage_domain.voltage                       1                       # Voltage in Volts
system.clk_domain.clock                          1000                       # Clock period in ticks
system.mem_ctrls0.pwrStateResidencyTicks::UNDEFINED 111360272234688                       # Cumulative time (in ticks) in various power states
system.mem_ctrls0.bytes_read::cpu.inst            128                       # Number of bytes read from this memory
system.mem_ctrls0.bytes_read::cpu.data            192                       # Number of bytes read from this memory
system.mem_ctrls0.bytes_read::switch_cpus.inst        16768                       # Number of bytes read from this memory
system.mem_ctrls0.bytes_read::switch_cpus.data      2470016                       # Number of bytes read from this memory
system.mem_ctrls0.bytes_read::switch_cpus_1.inst         7104                       # Number of bytes read from this memory
system.mem_ctrls0.bytes_read::switch_cpus_1.data      2483264                       # Number of bytes read from this memory
system.mem_ctrls0.bytes_read::total           4977472                       # Number of bytes read from this memory
system.mem_ctrls0.bytes_inst_read::cpu.inst          128                       # Number of instructions bytes read from this memory
system.mem_ctrls0.bytes_inst_read::switch_cpus.inst        16768                       # Number of instructions bytes read from this memory
system.mem_ctrls0.bytes_inst_read::switch_cpus_1.inst         7104                       # Number of instructions bytes read from this memory
system.mem_ctrls0.bytes_inst_read::total        24000                       # Number of instructions bytes read from this memory
system.mem_ctrls0.bytes_written::writebacks      2814464                       # Number of bytes written to this memory
system.mem_ctrls0.bytes_written::total        2814464                       # Number of bytes written to this memory
system.mem_ctrls0.num_reads::cpu.inst               2                       # Number of read requests responded to by this memory
system.mem_ctrls0.num_reads::cpu.data               3                       # Number of read requests responded to by this memory
system.mem_ctrls0.num_reads::switch_cpus.inst          262                       # Number of read requests responded to by this memory
system.mem_ctrls0.num_reads::switch_cpus.data        38594                       # Number of read requests responded to by this memory
system.mem_ctrls0.num_reads::switch_cpus_1.inst          111                       # Number of read requests responded to by this memory
system.mem_ctrls0.num_reads::switch_cpus_1.data        38801                       # Number of read requests responded to by this memory
system.mem_ctrls0.num_reads::total              77773                       # Number of read requests responded to by this memory
system.mem_ctrls0.num_writes::writebacks        43976                       # Number of write requests responded to by this memory
system.mem_ctrls0.num_writes::total             43976                       # Number of write requests responded to by this memory
system.mem_ctrls0.bw_read::cpu.inst               124                       # Total read bandwidth from this memory (bytes/s)
system.mem_ctrls0.bw_read::cpu.data               186                       # Total read bandwidth from this memory (bytes/s)
system.mem_ctrls0.bw_read::switch_cpus.inst        16216                       # Total read bandwidth from this memory (bytes/s)
system.mem_ctrls0.bw_read::switch_cpus.data      2388673                       # Total read bandwidth from this memory (bytes/s)
system.mem_ctrls0.bw_read::switch_cpus_1.inst         6870                       # Total read bandwidth from this memory (bytes/s)
system.mem_ctrls0.bw_read::switch_cpus_1.data      2401485                       # Total read bandwidth from this memory (bytes/s)
system.mem_ctrls0.bw_read::total              4813554                       # Total read bandwidth from this memory (bytes/s)
system.mem_ctrls0.bw_inst_read::cpu.inst          124                       # Instruction read bandwidth from this memory (bytes/s)
system.mem_ctrls0.bw_inst_read::switch_cpus.inst        16216                       # Instruction read bandwidth from this memory (bytes/s)
system.mem_ctrls0.bw_inst_read::switch_cpus_1.inst         6870                       # Instruction read bandwidth from this memory (bytes/s)
system.mem_ctrls0.bw_inst_read::total           23210                       # Instruction read bandwidth from this memory (bytes/s)
system.mem_ctrls0.bw_write::writebacks        2721778                       # Write bandwidth from this memory (bytes/s)
system.mem_ctrls0.bw_write::total             2721778                       # Write bandwidth from this memory (bytes/s)
system.mem_ctrls0.bw_total::writebacks        2721778                       # Total bandwidth to/from this memory (bytes/s)
system.mem_ctrls0.bw_total::cpu.inst              124                       # Total bandwidth to/from this memory (bytes/s)
system.mem_ctrls0.bw_total::cpu.data              186                       # Total bandwidth to/from this memory (bytes/s)
system.mem_ctrls0.bw_total::switch_cpus.inst        16216                       # Total bandwidth to/from this memory (bytes/s)
system.mem_ctrls0.bw_total::switch_cpus.data      2388673                       # Total bandwidth to/from this memory (bytes/s)
system.mem_ctrls0.bw_total::switch_cpus_1.inst         6870                       # Total bandwidth to/from this memory (bytes/s)
system.mem_ctrls0.bw_total::switch_cpus_1.data      2401485                       # Total bandwidth to/from this memory (bytes/s)
system.mem_ctrls0.bw_total::total             7535332                       # Total bandwidth to/from this memory (bytes/s)
system.mem_ctrls0.readReqs                      77773                       # Number of read requests accepted
system.mem_ctrls0.writeReqs                     43976                       # Number of write requests accepted
system.mem_ctrls0.readBursts                    77773                       # Number of DRAM read bursts, including those serviced by the write queue
system.mem_ctrls0.writeBursts                   43976                       # Number of DRAM write bursts, including those merged in the write queue
system.mem_ctrls0.bytesReadDRAM               4974720                       # Total number of bytes read from DRAM
system.mem_ctrls0.bytesReadWrQ                   2752                       # Total number of bytes read from write queue
system.mem_ctrls0.bytesWritten                2812608                       # Total number of bytes written to DRAM
system.mem_ctrls0.bytesReadSys                4977472                       # Total read bytes from the system interface side
system.mem_ctrls0.bytesWrittenSys             2814464                       # Total written bytes from the system interface side
system.mem_ctrls0.servicedByWrQ                    43                       # Number of DRAM read bursts serviced by the write queue
system.mem_ctrls0.mergedWrBursts                    0                       # Number of DRAM write bursts merged with an existing one
system.mem_ctrls0.neitherReadNorWriteReqs            0                       # Number of requests that are neither read nor write
system.mem_ctrls0.perBankRdBursts::0             4900                       # Per bank write bursts
system.mem_ctrls0.perBankRdBursts::1             4191                       # Per bank write bursts
system.mem_ctrls0.perBankRdBursts::2             4660                       # Per bank write bursts
system.mem_ctrls0.perBankRdBursts::3             5733                       # Per bank write bursts
system.mem_ctrls0.perBankRdBursts::4             5470                       # Per bank write bursts
system.mem_ctrls0.perBankRdBursts::5             4812                       # Per bank write bursts
system.mem_ctrls0.perBankRdBursts::6             4340                       # Per bank write bursts
system.mem_ctrls0.perBankRdBursts::7             4998                       # Per bank write bursts
system.mem_ctrls0.perBankRdBursts::8             4839                       # Per bank write bursts
system.mem_ctrls0.perBankRdBursts::9             4256                       # Per bank write bursts
system.mem_ctrls0.perBankRdBursts::10            5058                       # Per bank write bursts
system.mem_ctrls0.perBankRdBursts::11            5265                       # Per bank write bursts
system.mem_ctrls0.perBankRdBursts::12            5433                       # Per bank write bursts
system.mem_ctrls0.perBankRdBursts::13            4672                       # Per bank write bursts
system.mem_ctrls0.perBankRdBursts::14            4374                       # Per bank write bursts
system.mem_ctrls0.perBankRdBursts::15            4729                       # Per bank write bursts
system.mem_ctrls0.perBankWrBursts::0             2811                       # Per bank write bursts
system.mem_ctrls0.perBankWrBursts::1             2003                       # Per bank write bursts
system.mem_ctrls0.perBankWrBursts::2             2606                       # Per bank write bursts
system.mem_ctrls0.perBankWrBursts::3             3495                       # Per bank write bursts
system.mem_ctrls0.perBankWrBursts::4             3425                       # Per bank write bursts
system.mem_ctrls0.perBankWrBursts::5             2791                       # Per bank write bursts
system.mem_ctrls0.perBankWrBursts::6             2150                       # Per bank write bursts
system.mem_ctrls0.perBankWrBursts::7             2807                       # Per bank write bursts
system.mem_ctrls0.perBankWrBursts::8             2693                       # Per bank write bursts
system.mem_ctrls0.perBankWrBursts::9             2202                       # Per bank write bursts
system.mem_ctrls0.perBankWrBursts::10            2897                       # Per bank write bursts
system.mem_ctrls0.perBankWrBursts::11            3245                       # Per bank write bursts
system.mem_ctrls0.perBankWrBursts::12            3282                       # Per bank write bursts
system.mem_ctrls0.perBankWrBursts::13            2510                       # Per bank write bursts
system.mem_ctrls0.perBankWrBursts::14            2299                       # Per bank write bursts
system.mem_ctrls0.perBankWrBursts::15            2731                       # Per bank write bursts
system.mem_ctrls0.numRdRetry                        0                       # Number of times read queue was full causing retry
system.mem_ctrls0.numWrRetry                        0                       # Number of times write queue was full causing retry
system.mem_ctrls0.totGap                 1033777707480                       # Total gap between requests
system.mem_ctrls0.readPktSize::0                    0                       # Read request sizes (log2)
system.mem_ctrls0.readPktSize::1                    0                       # Read request sizes (log2)
system.mem_ctrls0.readPktSize::2                    0                       # Read request sizes (log2)
system.mem_ctrls0.readPktSize::3                    0                       # Read request sizes (log2)
system.mem_ctrls0.readPktSize::4                    0                       # Read request sizes (log2)
system.mem_ctrls0.readPktSize::5                    0                       # Read request sizes (log2)
system.mem_ctrls0.readPktSize::6                77773                       # Read request sizes (log2)
system.mem_ctrls0.writePktSize::0                   0                       # Write request sizes (log2)
system.mem_ctrls0.writePktSize::1                   0                       # Write request sizes (log2)
system.mem_ctrls0.writePktSize::2                   0                       # Write request sizes (log2)
system.mem_ctrls0.writePktSize::3                   0                       # Write request sizes (log2)
system.mem_ctrls0.writePktSize::4                   0                       # Write request sizes (log2)
system.mem_ctrls0.writePktSize::5                   0                       # Write request sizes (log2)
system.mem_ctrls0.writePktSize::6               43976                       # Write request sizes (log2)
system.mem_ctrls0.rdQLenPdf::0                  70305                       # What read queue length does an incoming req see
system.mem_ctrls0.rdQLenPdf::1                   6962                       # What read queue length does an incoming req see
system.mem_ctrls0.rdQLenPdf::2                    460                       # What read queue length does an incoming req see
system.mem_ctrls0.rdQLenPdf::3                      3                       # What read queue length does an incoming req see
system.mem_ctrls0.rdQLenPdf::4                      0                       # What read queue length does an incoming req see
system.mem_ctrls0.rdQLenPdf::5                      0                       # What read queue length does an incoming req see
system.mem_ctrls0.rdQLenPdf::6                      0                       # What read queue length does an incoming req see
system.mem_ctrls0.rdQLenPdf::7                      0                       # What read queue length does an incoming req see
system.mem_ctrls0.rdQLenPdf::8                      0                       # What read queue length does an incoming req see
system.mem_ctrls0.rdQLenPdf::9                      0                       # What read queue length does an incoming req see
system.mem_ctrls0.rdQLenPdf::10                     0                       # What read queue length does an incoming req see
system.mem_ctrls0.rdQLenPdf::11                     0                       # What read queue length does an incoming req see
system.mem_ctrls0.rdQLenPdf::12                     0                       # What read queue length does an incoming req see
system.mem_ctrls0.rdQLenPdf::13                     0                       # What read queue length does an incoming req see
system.mem_ctrls0.rdQLenPdf::14                     0                       # What read queue length does an incoming req see
system.mem_ctrls0.rdQLenPdf::15                     0                       # What read queue length does an incoming req see
system.mem_ctrls0.rdQLenPdf::16                     0                       # What read queue length does an incoming req see
system.mem_ctrls0.rdQLenPdf::17                     0                       # What read queue length does an incoming req see
system.mem_ctrls0.rdQLenPdf::18                     0                       # What read queue length does an incoming req see
system.mem_ctrls0.rdQLenPdf::19                     0                       # What read queue length does an incoming req see
system.mem_ctrls0.rdQLenPdf::20                     0                       # What read queue length does an incoming req see
system.mem_ctrls0.rdQLenPdf::21                     0                       # What read queue length does an incoming req see
system.mem_ctrls0.rdQLenPdf::22                     0                       # What read queue length does an incoming req see
system.mem_ctrls0.rdQLenPdf::23                     0                       # What read queue length does an incoming req see
system.mem_ctrls0.rdQLenPdf::24                     0                       # What read queue length does an incoming req see
system.mem_ctrls0.rdQLenPdf::25                     0                       # What read queue length does an incoming req see
system.mem_ctrls0.rdQLenPdf::26                     0                       # What read queue length does an incoming req see
system.mem_ctrls0.rdQLenPdf::27                     0                       # What read queue length does an incoming req see
system.mem_ctrls0.rdQLenPdf::28                     0                       # What read queue length does an incoming req see
system.mem_ctrls0.rdQLenPdf::29                     0                       # What read queue length does an incoming req see
system.mem_ctrls0.rdQLenPdf::30                     0                       # What read queue length does an incoming req see
system.mem_ctrls0.rdQLenPdf::31                     0                       # What read queue length does an incoming req see
system.mem_ctrls0.wrQLenPdf::0                      2                       # What write queue length does an incoming req see
system.mem_ctrls0.wrQLenPdf::1                      2                       # What write queue length does an incoming req see
system.mem_ctrls0.wrQLenPdf::2                      2                       # What write queue length does an incoming req see
system.mem_ctrls0.wrQLenPdf::3                      2                       # What write queue length does an incoming req see
system.mem_ctrls0.wrQLenPdf::4                      2                       # What write queue length does an incoming req see
system.mem_ctrls0.wrQLenPdf::5                      2                       # What write queue length does an incoming req see
system.mem_ctrls0.wrQLenPdf::6                      2                       # What write queue length does an incoming req see
system.mem_ctrls0.wrQLenPdf::7                      2                       # What write queue length does an incoming req see
system.mem_ctrls0.wrQLenPdf::8                      2                       # What write queue length does an incoming req see
system.mem_ctrls0.wrQLenPdf::9                      2                       # What write queue length does an incoming req see
system.mem_ctrls0.wrQLenPdf::10                     2                       # What write queue length does an incoming req see
system.mem_ctrls0.wrQLenPdf::11                     2                       # What write queue length does an incoming req see
system.mem_ctrls0.wrQLenPdf::12                     2                       # What write queue length does an incoming req see
system.mem_ctrls0.wrQLenPdf::13                     2                       # What write queue length does an incoming req see
system.mem_ctrls0.wrQLenPdf::14                     2                       # What write queue length does an incoming req see
system.mem_ctrls0.wrQLenPdf::15                  2065                       # What write queue length does an incoming req see
system.mem_ctrls0.wrQLenPdf::16                  2160                       # What write queue length does an incoming req see
system.mem_ctrls0.wrQLenPdf::17                  2402                       # What write queue length does an incoming req see
system.mem_ctrls0.wrQLenPdf::18                  2455                       # What write queue length does an incoming req see
system.mem_ctrls0.wrQLenPdf::19                  2478                       # What write queue length does an incoming req see
system.mem_ctrls0.wrQLenPdf::20                  2476                       # What write queue length does an incoming req see
system.mem_ctrls0.wrQLenPdf::21                  2498                       # What write queue length does an incoming req see
system.mem_ctrls0.wrQLenPdf::22                  2485                       # What write queue length does an incoming req see
system.mem_ctrls0.wrQLenPdf::23                  2485                       # What write queue length does an incoming req see
system.mem_ctrls0.wrQLenPdf::24                  2466                       # What write queue length does an incoming req see
system.mem_ctrls0.wrQLenPdf::25                  2477                       # What write queue length does an incoming req see
system.mem_ctrls0.wrQLenPdf::26                  2481                       # What write queue length does an incoming req see
system.mem_ctrls0.wrQLenPdf::27                  2499                       # What write queue length does an incoming req see
system.mem_ctrls0.wrQLenPdf::28                  2531                       # What write queue length does an incoming req see
system.mem_ctrls0.wrQLenPdf::29                  2517                       # What write queue length does an incoming req see
system.mem_ctrls0.wrQLenPdf::30                  2536                       # What write queue length does an incoming req see
system.mem_ctrls0.wrQLenPdf::31                  2435                       # What write queue length does an incoming req see
system.mem_ctrls0.wrQLenPdf::32                  2434                       # What write queue length does an incoming req see
system.mem_ctrls0.wrQLenPdf::33                    44                       # What write queue length does an incoming req see
system.mem_ctrls0.wrQLenPdf::34                    13                       # What write queue length does an incoming req see
system.mem_ctrls0.wrQLenPdf::35                     5                       # What write queue length does an incoming req see
system.mem_ctrls0.wrQLenPdf::36                     3                       # What write queue length does an incoming req see
system.mem_ctrls0.wrQLenPdf::37                     1                       # What write queue length does an incoming req see
system.mem_ctrls0.wrQLenPdf::38                     0                       # What write queue length does an incoming req see
system.mem_ctrls0.wrQLenPdf::39                     0                       # What write queue length does an incoming req see
system.mem_ctrls0.wrQLenPdf::40                     0                       # What write queue length does an incoming req see
system.mem_ctrls0.wrQLenPdf::41                     0                       # What write queue length does an incoming req see
system.mem_ctrls0.wrQLenPdf::42                     0                       # What write queue length does an incoming req see
system.mem_ctrls0.wrQLenPdf::43                     0                       # What write queue length does an incoming req see
system.mem_ctrls0.wrQLenPdf::44                     0                       # What write queue length does an incoming req see
system.mem_ctrls0.wrQLenPdf::45                     0                       # What write queue length does an incoming req see
system.mem_ctrls0.wrQLenPdf::46                     0                       # What write queue length does an incoming req see
system.mem_ctrls0.wrQLenPdf::47                     0                       # What write queue length does an incoming req see
system.mem_ctrls0.wrQLenPdf::48                     0                       # What write queue length does an incoming req see
system.mem_ctrls0.wrQLenPdf::49                     0                       # What write queue length does an incoming req see
system.mem_ctrls0.wrQLenPdf::50                     0                       # What write queue length does an incoming req see
system.mem_ctrls0.wrQLenPdf::51                     0                       # What write queue length does an incoming req see
system.mem_ctrls0.wrQLenPdf::52                     0                       # What write queue length does an incoming req see
system.mem_ctrls0.wrQLenPdf::53                     0                       # What write queue length does an incoming req see
system.mem_ctrls0.wrQLenPdf::54                     0                       # What write queue length does an incoming req see
system.mem_ctrls0.wrQLenPdf::55                     0                       # What write queue length does an incoming req see
system.mem_ctrls0.wrQLenPdf::56                     0                       # What write queue length does an incoming req see
system.mem_ctrls0.wrQLenPdf::57                     0                       # What write queue length does an incoming req see
system.mem_ctrls0.wrQLenPdf::58                     0                       # What write queue length does an incoming req see
system.mem_ctrls0.wrQLenPdf::59                     0                       # What write queue length does an incoming req see
system.mem_ctrls0.wrQLenPdf::60                     0                       # What write queue length does an incoming req see
system.mem_ctrls0.wrQLenPdf::61                     0                       # What write queue length does an incoming req see
system.mem_ctrls0.wrQLenPdf::62                     0                       # What write queue length does an incoming req see
system.mem_ctrls0.wrQLenPdf::63                     0                       # What write queue length does an incoming req see
system.mem_ctrls0.bytesPerActivate::samples        48641                       # Bytes accessed per row activation
system.mem_ctrls0.bytesPerActivate::mean   160.098024                       # Bytes accessed per row activation
system.mem_ctrls0.bytesPerActivate::gmean   125.042464                       # Bytes accessed per row activation
system.mem_ctrls0.bytesPerActivate::stdev   147.359678                       # Bytes accessed per row activation
system.mem_ctrls0.bytesPerActivate::0-127        17958     36.92%     36.92% # Bytes accessed per row activation
system.mem_ctrls0.bytesPerActivate::128-255        23598     48.51%     85.43% # Bytes accessed per row activation
system.mem_ctrls0.bytesPerActivate::256-383         3491      7.18%     92.61% # Bytes accessed per row activation
system.mem_ctrls0.bytesPerActivate::384-511         1455      2.99%     95.60% # Bytes accessed per row activation
system.mem_ctrls0.bytesPerActivate::512-639          793      1.63%     97.23% # Bytes accessed per row activation
system.mem_ctrls0.bytesPerActivate::640-767          477      0.98%     98.21% # Bytes accessed per row activation
system.mem_ctrls0.bytesPerActivate::768-895          372      0.76%     98.98% # Bytes accessed per row activation
system.mem_ctrls0.bytesPerActivate::896-1023          231      0.47%     99.45% # Bytes accessed per row activation
system.mem_ctrls0.bytesPerActivate::1024-1151          266      0.55%    100.00% # Bytes accessed per row activation
system.mem_ctrls0.bytesPerActivate::total        48641                       # Bytes accessed per row activation
system.mem_ctrls0.rdPerTurnAround::samples         2435                       # Reads before turning the bus around for writes
system.mem_ctrls0.rdPerTurnAround::mean     31.917043                       # Reads before turning the bus around for writes
system.mem_ctrls0.rdPerTurnAround::stdev   648.033548                       # Reads before turning the bus around for writes
system.mem_ctrls0.rdPerTurnAround::0-1023         2434     99.96%     99.96% # Reads before turning the bus around for writes
system.mem_ctrls0.rdPerTurnAround::31744-32767            1      0.04%    100.00% # Reads before turning the bus around for writes
system.mem_ctrls0.rdPerTurnAround::total         2435                       # Reads before turning the bus around for writes
system.mem_ctrls0.wrPerTurnAround::samples         2435                       # Writes before turning the bus around for reads
system.mem_ctrls0.wrPerTurnAround::mean     18.048049                       # Writes before turning the bus around for reads
system.mem_ctrls0.wrPerTurnAround::gmean    18.020421                       # Writes before turning the bus around for reads
system.mem_ctrls0.wrPerTurnAround::stdev     0.994103                       # Writes before turning the bus around for reads
system.mem_ctrls0.wrPerTurnAround::16             286     11.75%     11.75% # Writes before turning the bus around for reads
system.mem_ctrls0.wrPerTurnAround::17              63      2.59%     14.33% # Writes before turning the bus around for reads
system.mem_ctrls0.wrPerTurnAround::18            1512     62.09%     76.43% # Writes before turning the bus around for reads
system.mem_ctrls0.wrPerTurnAround::19             433     17.78%     94.21% # Writes before turning the bus around for reads
system.mem_ctrls0.wrPerTurnAround::20             112      4.60%     98.81% # Writes before turning the bus around for reads
system.mem_ctrls0.wrPerTurnAround::21              24      0.99%     99.79% # Writes before turning the bus around for reads
system.mem_ctrls0.wrPerTurnAround::22               2      0.08%     99.88% # Writes before turning the bus around for reads
system.mem_ctrls0.wrPerTurnAround::23               3      0.12%    100.00% # Writes before turning the bus around for reads
system.mem_ctrls0.wrPerTurnAround::total         2435                       # Writes before turning the bus around for reads
system.mem_ctrls0.totQLat                  1502001075                       # Total ticks spent queuing
system.mem_ctrls0.totMemAccLat             2959438575                       # Total ticks spent from burst creation until serviced by the DRAM
system.mem_ctrls0.totBusLat                 388650000                       # Total ticks spent in databus transfers
system.mem_ctrls0.avgQLat                    19323.31                       # Average queueing delay per DRAM burst
system.mem_ctrls0.avgBusLat                   5000.00                       # Average bus latency per DRAM burst
system.mem_ctrls0.avgMemAccLat               38073.31                       # Average memory access latency per DRAM burst
system.mem_ctrls0.avgRdBW                        4.81                       # Average DRAM read bandwidth in MiByte/s
system.mem_ctrls0.avgWrBW                        2.72                       # Average achieved write bandwidth in MiByte/s
system.mem_ctrls0.avgRdBWSys                     4.81                       # Average system read bandwidth in MiByte/s
system.mem_ctrls0.avgWrBWSys                     2.72                       # Average system write bandwidth in MiByte/s
system.mem_ctrls0.peakBW                     12800.00                       # Theoretical peak bandwidth in MiByte/s
system.mem_ctrls0.busUtil                        0.06                       # Data bus utilization in percentage
system.mem_ctrls0.busUtilRead                    0.04                       # Data bus utilization in percentage for reads
system.mem_ctrls0.busUtilWrite                   0.02                       # Data bus utilization in percentage for writes
system.mem_ctrls0.avgRdQLen                      1.00                       # Average read queue length when enqueuing
system.mem_ctrls0.avgWrQLen                      1.42                       # Average write queue length when enqueuing
system.mem_ctrls0.readRowHits                   53145                       # Number of row buffer hits during reads
system.mem_ctrls0.writeRowHits                  19891                       # Number of row buffer hits during writes
system.mem_ctrls0.readRowHitRate                68.37                       # Row buffer hit rate for reads
system.mem_ctrls0.writeRowHitRate               45.23                       # Row buffer hit rate for writes
system.mem_ctrls0.avgGap                   8491057.07                       # Average gap between requests
system.mem_ctrls0.pageHitRate                   60.01                       # Row buffer hit rate, read and write combined
system.mem_ctrls0_0.actEnergy               173716200                       # Energy for activate commands per rank (pJ)
system.mem_ctrls0_0.preEnergy                92332350                       # Energy for precharge commands per rank (pJ)
system.mem_ctrls0_0.readEnergy              279202560                       # Energy for read commands per rank (pJ)
system.mem_ctrls0_0.writeEnergy             115299360                       # Energy for write commands per rank (pJ)
system.mem_ctrls0_0.refreshEnergy        4655898000.000001                       # Energy for refresh commands per rank (pJ)
system.mem_ctrls0_0.actBackEnergy          2434171890                       # Energy for active background per rank (pJ)
system.mem_ctrls0_0.preBackEnergy           128711520                       # Energy for precharge background per rank (pJ)
system.mem_ctrls0_0.actPowerDownEnergy    18124441620                       # Energy for active power-down per rank (pJ)
system.mem_ctrls0_0.prePowerDownEnergy     4321530720                       # Energy for precharge power-down per rank (pJ)
system.mem_ctrls0_0.selfRefreshEnergy    234746986965                       # Energy for self refresh per rank (pJ)
system.mem_ctrls0_0.totalEnergy          265073047725                       # Total energy per rank (pJ)
system.mem_ctrls0_0.averagePower           256.343653                       # Core power per rank (mW)
system.mem_ctrls0_0.totalIdleTime        1027040694193                       # Total Idle time Per DRAM Rank
system.mem_ctrls0_0.memoryStateTime::IDLE    130819523                       # Time in different power states
system.mem_ctrls0_0.memoryStateTime::REF   1971468000                       # Time in different power states
system.mem_ctrls0_0.memoryStateTime::SREF 977377950181                       # Time in different power states
system.mem_ctrls0_0.memoryStateTime::PRE_PDN  11253235222                       # Time in different power states
system.mem_ctrls0_0.memoryStateTime::ACT   3572128050                       # Time in different power states
system.mem_ctrls0_0.memoryStateTime::ACT_PDN  39747879455                       # Time in different power states
system.mem_ctrls0_1.actEnergy               173580540                       # Energy for activate commands per rank (pJ)
system.mem_ctrls0_1.preEnergy                92260245                       # Energy for precharge commands per rank (pJ)
system.mem_ctrls0_1.readEnergy              275789640                       # Energy for read commands per rank (pJ)
system.mem_ctrls0_1.writeEnergy             114103980                       # Energy for write commands per rank (pJ)
system.mem_ctrls0_1.refreshEnergy        4512686880.000001                       # Energy for refresh commands per rank (pJ)
system.mem_ctrls0_1.actBackEnergy          2464155030                       # Energy for active background per rank (pJ)
system.mem_ctrls0_1.preBackEnergy           120341280                       # Energy for precharge background per rank (pJ)
system.mem_ctrls0_1.actPowerDownEnergy    17658515070                       # Energy for active power-down per rank (pJ)
system.mem_ctrls0_1.prePowerDownEnergy     4206691200                       # Energy for precharge power-down per rank (pJ)
system.mem_ctrls0_1.selfRefreshEnergy    235012482690                       # Energy for self refresh per rank (pJ)
system.mem_ctrls0_1.totalEnergy          264630995085                       # Total energy per rank (pJ)
system.mem_ctrls0_1.averagePower           255.916159                       # Core power per rank (mW)
system.mem_ctrls0_1.totalIdleTime        1026322995683                       # Total Idle time Per DRAM Rank
system.mem_ctrls0_1.memoryStateTime::IDLE    113155657                       # Time in different power states
system.mem_ctrls0_1.memoryStateTime::REF   1910462000                       # Time in different power states
system.mem_ctrls0_1.memoryStateTime::SREF 978655627931                       # Time in different power states
system.mem_ctrls0_1.memoryStateTime::PRE_PDN  10954452143                       # Time in different power states
system.mem_ctrls0_1.memoryStateTime::ACT   3695481115                       # Time in different power states
system.mem_ctrls0_1.memoryStateTime::ACT_PDN  38724301585                       # Time in different power states
system.mem_ctrls1.pwrStateResidencyTicks::UNDEFINED 111360272234688                       # Cumulative time (in ticks) in various power states
system.mem_ctrls1.bytes_read::cpu.inst             64                       # Number of bytes read from this memory
system.mem_ctrls1.bytes_read::cpu.data             64                       # Number of bytes read from this memory
system.mem_ctrls1.bytes_read::switch_cpus.inst        16832                       # Number of bytes read from this memory
system.mem_ctrls1.bytes_read::switch_cpus.data      2466112                       # Number of bytes read from this memory
system.mem_ctrls1.bytes_read::switch_cpus_1.inst         6784                       # Number of bytes read from this memory
system.mem_ctrls1.bytes_read::switch_cpus_1.data      2488576                       # Number of bytes read from this memory
system.mem_ctrls1.bytes_read::total           4978432                       # Number of bytes read from this memory
system.mem_ctrls1.bytes_inst_read::cpu.inst           64                       # Number of instructions bytes read from this memory
system.mem_ctrls1.bytes_inst_read::switch_cpus.inst        16832                       # Number of instructions bytes read from this memory
system.mem_ctrls1.bytes_inst_read::switch_cpus_1.inst         6784                       # Number of instructions bytes read from this memory
system.mem_ctrls1.bytes_inst_read::total        23680                       # Number of instructions bytes read from this memory
system.mem_ctrls1.bytes_written::writebacks      2813952                       # Number of bytes written to this memory
system.mem_ctrls1.bytes_written::total        2813952                       # Number of bytes written to this memory
system.mem_ctrls1.num_reads::cpu.inst               1                       # Number of read requests responded to by this memory
system.mem_ctrls1.num_reads::cpu.data               1                       # Number of read requests responded to by this memory
system.mem_ctrls1.num_reads::switch_cpus.inst          263                       # Number of read requests responded to by this memory
system.mem_ctrls1.num_reads::switch_cpus.data        38533                       # Number of read requests responded to by this memory
system.mem_ctrls1.num_reads::switch_cpus_1.inst          106                       # Number of read requests responded to by this memory
system.mem_ctrls1.num_reads::switch_cpus_1.data        38884                       # Number of read requests responded to by this memory
system.mem_ctrls1.num_reads::total              77788                       # Number of read requests responded to by this memory
system.mem_ctrls1.num_writes::writebacks        43968                       # Number of write requests responded to by this memory
system.mem_ctrls1.num_writes::total             43968                       # Number of write requests responded to by this memory
system.mem_ctrls1.bw_read::cpu.inst                62                       # Total read bandwidth from this memory (bytes/s)
system.mem_ctrls1.bw_read::cpu.data                62                       # Total read bandwidth from this memory (bytes/s)
system.mem_ctrls1.bw_read::switch_cpus.inst        16278                       # Total read bandwidth from this memory (bytes/s)
system.mem_ctrls1.bw_read::switch_cpus.data      2384898                       # Total read bandwidth from this memory (bytes/s)
system.mem_ctrls1.bw_read::switch_cpus_1.inst         6561                       # Total read bandwidth from this memory (bytes/s)
system.mem_ctrls1.bw_read::switch_cpus_1.data      2406622                       # Total read bandwidth from this memory (bytes/s)
system.mem_ctrls1.bw_read::total              4814482                       # Total read bandwidth from this memory (bytes/s)
system.mem_ctrls1.bw_inst_read::cpu.inst           62                       # Instruction read bandwidth from this memory (bytes/s)
system.mem_ctrls1.bw_inst_read::switch_cpus.inst        16278                       # Instruction read bandwidth from this memory (bytes/s)
system.mem_ctrls1.bw_inst_read::switch_cpus_1.inst         6561                       # Instruction read bandwidth from this memory (bytes/s)
system.mem_ctrls1.bw_inst_read::total           22900                       # Instruction read bandwidth from this memory (bytes/s)
system.mem_ctrls1.bw_write::writebacks        2721283                       # Write bandwidth from this memory (bytes/s)
system.mem_ctrls1.bw_write::total             2721283                       # Write bandwidth from this memory (bytes/s)
system.mem_ctrls1.bw_total::writebacks        2721283                       # Total bandwidth to/from this memory (bytes/s)
system.mem_ctrls1.bw_total::cpu.inst               62                       # Total bandwidth to/from this memory (bytes/s)
system.mem_ctrls1.bw_total::cpu.data               62                       # Total bandwidth to/from this memory (bytes/s)
system.mem_ctrls1.bw_total::switch_cpus.inst        16278                       # Total bandwidth to/from this memory (bytes/s)
system.mem_ctrls1.bw_total::switch_cpus.data      2384898                       # Total bandwidth to/from this memory (bytes/s)
system.mem_ctrls1.bw_total::switch_cpus_1.inst         6561                       # Total bandwidth to/from this memory (bytes/s)
system.mem_ctrls1.bw_total::switch_cpus_1.data      2406622                       # Total bandwidth to/from this memory (bytes/s)
system.mem_ctrls1.bw_total::total             7535765                       # Total bandwidth to/from this memory (bytes/s)
system.mem_ctrls1.readReqs                      77788                       # Number of read requests accepted
system.mem_ctrls1.writeReqs                     43968                       # Number of write requests accepted
system.mem_ctrls1.readBursts                    77788                       # Number of DRAM read bursts, including those serviced by the write queue
system.mem_ctrls1.writeBursts                   43968                       # Number of DRAM write bursts, including those merged in the write queue
system.mem_ctrls1.bytesReadDRAM               4975040                       # Total number of bytes read from DRAM
system.mem_ctrls1.bytesReadWrQ                   3392                       # Total number of bytes read from write queue
system.mem_ctrls1.bytesWritten                2812608                       # Total number of bytes written to DRAM
system.mem_ctrls1.bytesReadSys                4978432                       # Total read bytes from the system interface side
system.mem_ctrls1.bytesWrittenSys             2813952                       # Total written bytes from the system interface side
system.mem_ctrls1.servicedByWrQ                    53                       # Number of DRAM read bursts serviced by the write queue
system.mem_ctrls1.mergedWrBursts                    0                       # Number of DRAM write bursts merged with an existing one
system.mem_ctrls1.neitherReadNorWriteReqs            0                       # Number of requests that are neither read nor write
system.mem_ctrls1.perBankRdBursts::0             4892                       # Per bank write bursts
system.mem_ctrls1.perBankRdBursts::1             4202                       # Per bank write bursts
system.mem_ctrls1.perBankRdBursts::2             4637                       # Per bank write bursts
system.mem_ctrls1.perBankRdBursts::3             5660                       # Per bank write bursts
system.mem_ctrls1.perBankRdBursts::4             5504                       # Per bank write bursts
system.mem_ctrls1.perBankRdBursts::5             4790                       # Per bank write bursts
system.mem_ctrls1.perBankRdBursts::6             4380                       # Per bank write bursts
system.mem_ctrls1.perBankRdBursts::7             4969                       # Per bank write bursts
system.mem_ctrls1.perBankRdBursts::8             4853                       # Per bank write bursts
system.mem_ctrls1.perBankRdBursts::9             4274                       # Per bank write bursts
system.mem_ctrls1.perBankRdBursts::10            5020                       # Per bank write bursts
system.mem_ctrls1.perBankRdBursts::11            5327                       # Per bank write bursts
system.mem_ctrls1.perBankRdBursts::12            5460                       # Per bank write bursts
system.mem_ctrls1.perBankRdBursts::13            4667                       # Per bank write bursts
system.mem_ctrls1.perBankRdBursts::14            4390                       # Per bank write bursts
system.mem_ctrls1.perBankRdBursts::15            4710                       # Per bank write bursts
system.mem_ctrls1.perBankWrBursts::0             2787                       # Per bank write bursts
system.mem_ctrls1.perBankWrBursts::1             2011                       # Per bank write bursts
system.mem_ctrls1.perBankWrBursts::2             2595                       # Per bank write bursts
system.mem_ctrls1.perBankWrBursts::3             3413                       # Per bank write bursts
system.mem_ctrls1.perBankWrBursts::4             3473                       # Per bank write bursts
system.mem_ctrls1.perBankWrBursts::5             2774                       # Per bank write bursts
system.mem_ctrls1.perBankWrBursts::6             2197                       # Per bank write bursts
system.mem_ctrls1.perBankWrBursts::7             2809                       # Per bank write bursts
system.mem_ctrls1.perBankWrBursts::8             2717                       # Per bank write bursts
system.mem_ctrls1.perBankWrBursts::9             2209                       # Per bank write bursts
system.mem_ctrls1.perBankWrBursts::10            2858                       # Per bank write bursts
system.mem_ctrls1.perBankWrBursts::11            3308                       # Per bank write bursts
system.mem_ctrls1.perBankWrBursts::12            3287                       # Per bank write bursts
system.mem_ctrls1.perBankWrBursts::13            2504                       # Per bank write bursts
system.mem_ctrls1.perBankWrBursts::14            2307                       # Per bank write bursts
system.mem_ctrls1.perBankWrBursts::15            2698                       # Per bank write bursts
system.mem_ctrls1.numRdRetry                        0                       # Number of times read queue was full causing retry
system.mem_ctrls1.numWrRetry                        0                       # Number of times write queue was full causing retry
system.mem_ctrls1.totGap                 1033758730143                       # Total gap between requests
system.mem_ctrls1.readPktSize::0                    0                       # Read request sizes (log2)
system.mem_ctrls1.readPktSize::1                    0                       # Read request sizes (log2)
system.mem_ctrls1.readPktSize::2                    0                       # Read request sizes (log2)
system.mem_ctrls1.readPktSize::3                    0                       # Read request sizes (log2)
system.mem_ctrls1.readPktSize::4                    0                       # Read request sizes (log2)
system.mem_ctrls1.readPktSize::5                    0                       # Read request sizes (log2)
system.mem_ctrls1.readPktSize::6                77788                       # Read request sizes (log2)
system.mem_ctrls1.writePktSize::0                   0                       # Write request sizes (log2)
system.mem_ctrls1.writePktSize::1                   0                       # Write request sizes (log2)
system.mem_ctrls1.writePktSize::2                   0                       # Write request sizes (log2)
system.mem_ctrls1.writePktSize::3                   0                       # Write request sizes (log2)
system.mem_ctrls1.writePktSize::4                   0                       # Write request sizes (log2)
system.mem_ctrls1.writePktSize::5                   0                       # Write request sizes (log2)
system.mem_ctrls1.writePktSize::6               43968                       # Write request sizes (log2)
system.mem_ctrls1.rdQLenPdf::0                  70318                       # What read queue length does an incoming req see
system.mem_ctrls1.rdQLenPdf::1                   6986                       # What read queue length does an incoming req see
system.mem_ctrls1.rdQLenPdf::2                    431                       # What read queue length does an incoming req see
system.mem_ctrls1.rdQLenPdf::3                      0                       # What read queue length does an incoming req see
system.mem_ctrls1.rdQLenPdf::4                      0                       # What read queue length does an incoming req see
system.mem_ctrls1.rdQLenPdf::5                      0                       # What read queue length does an incoming req see
system.mem_ctrls1.rdQLenPdf::6                      0                       # What read queue length does an incoming req see
system.mem_ctrls1.rdQLenPdf::7                      0                       # What read queue length does an incoming req see
system.mem_ctrls1.rdQLenPdf::8                      0                       # What read queue length does an incoming req see
system.mem_ctrls1.rdQLenPdf::9                      0                       # What read queue length does an incoming req see
system.mem_ctrls1.rdQLenPdf::10                     0                       # What read queue length does an incoming req see
system.mem_ctrls1.rdQLenPdf::11                     0                       # What read queue length does an incoming req see
system.mem_ctrls1.rdQLenPdf::12                     0                       # What read queue length does an incoming req see
system.mem_ctrls1.rdQLenPdf::13                     0                       # What read queue length does an incoming req see
system.mem_ctrls1.rdQLenPdf::14                     0                       # What read queue length does an incoming req see
system.mem_ctrls1.rdQLenPdf::15                     0                       # What read queue length does an incoming req see
system.mem_ctrls1.rdQLenPdf::16                     0                       # What read queue length does an incoming req see
system.mem_ctrls1.rdQLenPdf::17                     0                       # What read queue length does an incoming req see
system.mem_ctrls1.rdQLenPdf::18                     0                       # What read queue length does an incoming req see
system.mem_ctrls1.rdQLenPdf::19                     0                       # What read queue length does an incoming req see
system.mem_ctrls1.rdQLenPdf::20                     0                       # What read queue length does an incoming req see
system.mem_ctrls1.rdQLenPdf::21                     0                       # What read queue length does an incoming req see
system.mem_ctrls1.rdQLenPdf::22                     0                       # What read queue length does an incoming req see
system.mem_ctrls1.rdQLenPdf::23                     0                       # What read queue length does an incoming req see
system.mem_ctrls1.rdQLenPdf::24                     0                       # What read queue length does an incoming req see
system.mem_ctrls1.rdQLenPdf::25                     0                       # What read queue length does an incoming req see
system.mem_ctrls1.rdQLenPdf::26                     0                       # What read queue length does an incoming req see
system.mem_ctrls1.rdQLenPdf::27                     0                       # What read queue length does an incoming req see
system.mem_ctrls1.rdQLenPdf::28                     0                       # What read queue length does an incoming req see
system.mem_ctrls1.rdQLenPdf::29                     0                       # What read queue length does an incoming req see
system.mem_ctrls1.rdQLenPdf::30                     0                       # What read queue length does an incoming req see
system.mem_ctrls1.rdQLenPdf::31                     0                       # What read queue length does an incoming req see
system.mem_ctrls1.wrQLenPdf::0                      2                       # What write queue length does an incoming req see
system.mem_ctrls1.wrQLenPdf::1                      2                       # What write queue length does an incoming req see
system.mem_ctrls1.wrQLenPdf::2                      2                       # What write queue length does an incoming req see
system.mem_ctrls1.wrQLenPdf::3                      2                       # What write queue length does an incoming req see
system.mem_ctrls1.wrQLenPdf::4                      2                       # What write queue length does an incoming req see
system.mem_ctrls1.wrQLenPdf::5                      2                       # What write queue length does an incoming req see
system.mem_ctrls1.wrQLenPdf::6                      2                       # What write queue length does an incoming req see
system.mem_ctrls1.wrQLenPdf::7                      2                       # What write queue length does an incoming req see
system.mem_ctrls1.wrQLenPdf::8                      2                       # What write queue length does an incoming req see
system.mem_ctrls1.wrQLenPdf::9                      2                       # What write queue length does an incoming req see
system.mem_ctrls1.wrQLenPdf::10                     2                       # What write queue length does an incoming req see
system.mem_ctrls1.wrQLenPdf::11                     2                       # What write queue length does an incoming req see
system.mem_ctrls1.wrQLenPdf::12                     2                       # What write queue length does an incoming req see
system.mem_ctrls1.wrQLenPdf::13                     2                       # What write queue length does an incoming req see
system.mem_ctrls1.wrQLenPdf::14                     2                       # What write queue length does an incoming req see
system.mem_ctrls1.wrQLenPdf::15                  2066                       # What write queue length does an incoming req see
system.mem_ctrls1.wrQLenPdf::16                  2188                       # What write queue length does an incoming req see
system.mem_ctrls1.wrQLenPdf::17                  2399                       # What write queue length does an incoming req see
system.mem_ctrls1.wrQLenPdf::18                  2479                       # What write queue length does an incoming req see
system.mem_ctrls1.wrQLenPdf::19                  2481                       # What write queue length does an incoming req see
system.mem_ctrls1.wrQLenPdf::20                  2475                       # What write queue length does an incoming req see
system.mem_ctrls1.wrQLenPdf::21                  2482                       # What write queue length does an incoming req see
system.mem_ctrls1.wrQLenPdf::22                  2479                       # What write queue length does an incoming req see
system.mem_ctrls1.wrQLenPdf::23                  2488                       # What write queue length does an incoming req see
system.mem_ctrls1.wrQLenPdf::24                  2477                       # What write queue length does an incoming req see
system.mem_ctrls1.wrQLenPdf::25                  2468                       # What write queue length does an incoming req see
system.mem_ctrls1.wrQLenPdf::26                  2478                       # What write queue length does an incoming req see
system.mem_ctrls1.wrQLenPdf::27                  2516                       # What write queue length does an incoming req see
system.mem_ctrls1.wrQLenPdf::28                  2531                       # What write queue length does an incoming req see
system.mem_ctrls1.wrQLenPdf::29                  2487                       # What write queue length does an incoming req see
system.mem_ctrls1.wrQLenPdf::30                  2527                       # What write queue length does an incoming req see
system.mem_ctrls1.wrQLenPdf::31                  2433                       # What write queue length does an incoming req see
system.mem_ctrls1.wrQLenPdf::32                  2432                       # What write queue length does an incoming req see
system.mem_ctrls1.wrQLenPdf::33                    34                       # What write queue length does an incoming req see
system.mem_ctrls1.wrQLenPdf::34                    13                       # What write queue length does an incoming req see
system.mem_ctrls1.wrQLenPdf::35                     4                       # What write queue length does an incoming req see
system.mem_ctrls1.wrQLenPdf::36                     1                       # What write queue length does an incoming req see
system.mem_ctrls1.wrQLenPdf::37                     0                       # What write queue length does an incoming req see
system.mem_ctrls1.wrQLenPdf::38                     0                       # What write queue length does an incoming req see
system.mem_ctrls1.wrQLenPdf::39                     0                       # What write queue length does an incoming req see
system.mem_ctrls1.wrQLenPdf::40                     0                       # What write queue length does an incoming req see
system.mem_ctrls1.wrQLenPdf::41                     0                       # What write queue length does an incoming req see
system.mem_ctrls1.wrQLenPdf::42                     0                       # What write queue length does an incoming req see
system.mem_ctrls1.wrQLenPdf::43                     0                       # What write queue length does an incoming req see
system.mem_ctrls1.wrQLenPdf::44                     0                       # What write queue length does an incoming req see
system.mem_ctrls1.wrQLenPdf::45                     0                       # What write queue length does an incoming req see
system.mem_ctrls1.wrQLenPdf::46                     0                       # What write queue length does an incoming req see
system.mem_ctrls1.wrQLenPdf::47                     0                       # What write queue length does an incoming req see
system.mem_ctrls1.wrQLenPdf::48                     0                       # What write queue length does an incoming req see
system.mem_ctrls1.wrQLenPdf::49                     0                       # What write queue length does an incoming req see
system.mem_ctrls1.wrQLenPdf::50                     0                       # What write queue length does an incoming req see
system.mem_ctrls1.wrQLenPdf::51                     0                       # What write queue length does an incoming req see
system.mem_ctrls1.wrQLenPdf::52                     0                       # What write queue length does an incoming req see
system.mem_ctrls1.wrQLenPdf::53                     0                       # What write queue length does an incoming req see
system.mem_ctrls1.wrQLenPdf::54                     0                       # What write queue length does an incoming req see
system.mem_ctrls1.wrQLenPdf::55                     0                       # What write queue length does an incoming req see
system.mem_ctrls1.wrQLenPdf::56                     0                       # What write queue length does an incoming req see
system.mem_ctrls1.wrQLenPdf::57                     0                       # What write queue length does an incoming req see
system.mem_ctrls1.wrQLenPdf::58                     0                       # What write queue length does an incoming req see
system.mem_ctrls1.wrQLenPdf::59                     0                       # What write queue length does an incoming req see
system.mem_ctrls1.wrQLenPdf::60                     0                       # What write queue length does an incoming req see
system.mem_ctrls1.wrQLenPdf::61                     0                       # What write queue length does an incoming req see
system.mem_ctrls1.wrQLenPdf::62                     0                       # What write queue length does an incoming req see
system.mem_ctrls1.wrQLenPdf::63                     0                       # What write queue length does an incoming req see
system.mem_ctrls1.bytesPerActivate::samples        48794                       # Bytes accessed per row activation
system.mem_ctrls1.bytesPerActivate::mean   159.602574                       # Bytes accessed per row activation
system.mem_ctrls1.bytesPerActivate::gmean   124.608163                       # Bytes accessed per row activation
system.mem_ctrls1.bytesPerActivate::stdev   147.445489                       # Bytes accessed per row activation
system.mem_ctrls1.bytesPerActivate::0-127        18167     37.23%     37.23% # Bytes accessed per row activation
system.mem_ctrls1.bytesPerActivate::128-255        23731     48.64%     85.87% # Bytes accessed per row activation
system.mem_ctrls1.bytesPerActivate::256-383         3340      6.85%     92.71% # Bytes accessed per row activation
system.mem_ctrls1.bytesPerActivate::384-511         1386      2.84%     95.55% # Bytes accessed per row activation
system.mem_ctrls1.bytesPerActivate::512-639          807      1.65%     97.21% # Bytes accessed per row activation
system.mem_ctrls1.bytesPerActivate::640-767          496      1.02%     98.22% # Bytes accessed per row activation
system.mem_ctrls1.bytesPerActivate::768-895          352      0.72%     98.94% # Bytes accessed per row activation
system.mem_ctrls1.bytesPerActivate::896-1023          259      0.53%     99.48% # Bytes accessed per row activation
system.mem_ctrls1.bytesPerActivate::1024-1151          256      0.52%    100.00% # Bytes accessed per row activation
system.mem_ctrls1.bytesPerActivate::total        48794                       # Bytes accessed per row activation
system.mem_ctrls1.rdPerTurnAround::samples         2433                       # Reads before turning the bus around for writes
system.mem_ctrls1.rdPerTurnAround::mean     31.946979                       # Reads before turning the bus around for writes
system.mem_ctrls1.rdPerTurnAround::stdev   648.585450                       # Reads before turning the bus around for writes
system.mem_ctrls1.rdPerTurnAround::0-1023         2432     99.96%     99.96% # Reads before turning the bus around for writes
system.mem_ctrls1.rdPerTurnAround::31744-32767            1      0.04%    100.00% # Reads before turning the bus around for writes
system.mem_ctrls1.rdPerTurnAround::total         2433                       # Reads before turning the bus around for writes
system.mem_ctrls1.wrPerTurnAround::samples         2433                       # Writes before turning the bus around for reads
system.mem_ctrls1.wrPerTurnAround::mean     18.062885                       # Writes before turning the bus around for reads
system.mem_ctrls1.wrPerTurnAround::gmean    18.035575                       # Writes before turning the bus around for reads
system.mem_ctrls1.wrPerTurnAround::stdev     0.990369                       # Writes before turning the bus around for reads
system.mem_ctrls1.wrPerTurnAround::16             271     11.14%     11.14% # Writes before turning the bus around for reads
system.mem_ctrls1.wrPerTurnAround::17              74      3.04%     14.18% # Writes before turning the bus around for reads
system.mem_ctrls1.wrPerTurnAround::18            1491     61.28%     75.46% # Writes before turning the bus around for reads
system.mem_ctrls1.wrPerTurnAround::19             466     19.15%     94.62% # Writes before turning the bus around for reads
system.mem_ctrls1.wrPerTurnAround::20             102      4.19%     98.81% # Writes before turning the bus around for reads
system.mem_ctrls1.wrPerTurnAround::21              23      0.95%     99.75% # Writes before turning the bus around for reads
system.mem_ctrls1.wrPerTurnAround::22               2      0.08%     99.84% # Writes before turning the bus around for reads
system.mem_ctrls1.wrPerTurnAround::23               3      0.12%     99.96% # Writes before turning the bus around for reads
system.mem_ctrls1.wrPerTurnAround::25               1      0.04%    100.00% # Writes before turning the bus around for reads
system.mem_ctrls1.wrPerTurnAround::total         2433                       # Writes before turning the bus around for reads
system.mem_ctrls1.totQLat                  1497281213                       # Total ticks spent queuing
system.mem_ctrls1.totMemAccLat             2954812463                       # Total ticks spent from burst creation until serviced by the DRAM
system.mem_ctrls1.totBusLat                 388675000                       # Total ticks spent in databus transfers
system.mem_ctrls1.avgQLat                    19261.35                       # Average queueing delay per DRAM burst
system.mem_ctrls1.avgBusLat                   5000.00                       # Average bus latency per DRAM burst
system.mem_ctrls1.avgMemAccLat               38011.35                       # Average memory access latency per DRAM burst
system.mem_ctrls1.avgRdBW                        4.81                       # Average DRAM read bandwidth in MiByte/s
system.mem_ctrls1.avgWrBW                        2.72                       # Average achieved write bandwidth in MiByte/s
system.mem_ctrls1.avgRdBWSys                     4.81                       # Average system read bandwidth in MiByte/s
system.mem_ctrls1.avgWrBWSys                     2.72                       # Average system write bandwidth in MiByte/s
system.mem_ctrls1.peakBW                     12800.00                       # Theoretical peak bandwidth in MiByte/s
system.mem_ctrls1.busUtil                        0.06                       # Data bus utilization in percentage
system.mem_ctrls1.busUtilRead                    0.04                       # Data bus utilization in percentage for reads
system.mem_ctrls1.busUtilWrite                   0.02                       # Data bus utilization in percentage for writes
system.mem_ctrls1.avgRdQLen                      1.00                       # Average read queue length when enqueuing
system.mem_ctrls1.avgWrQLen                      1.38                       # Average write queue length when enqueuing
system.mem_ctrls1.readRowHits                   53196                       # Number of row buffer hits during reads
system.mem_ctrls1.writeRowHits                  19692                       # Number of row buffer hits during writes
system.mem_ctrls1.readRowHitRate                68.43                       # Row buffer hit rate for reads
system.mem_ctrls1.writeRowHitRate               44.79                       # Row buffer hit rate for writes
system.mem_ctrls1.avgGap                   8490413.04                       # Average gap between requests
system.mem_ctrls1.pageHitRate                   59.89                       # Row buffer hit rate, read and write combined
system.mem_ctrls1_0.actEnergy               174744360                       # Energy for activate commands per rank (pJ)
system.mem_ctrls1_0.preEnergy                92878830                       # Energy for precharge commands per rank (pJ)
system.mem_ctrls1_0.readEnergy              278702760                       # Energy for read commands per rank (pJ)
system.mem_ctrls1_0.writeEnergy             115147980                       # Energy for write commands per rank (pJ)
system.mem_ctrls1_0.refreshEnergy        4657741920.000001                       # Energy for refresh commands per rank (pJ)
system.mem_ctrls1_0.actBackEnergy          2451312360                       # Energy for active background per rank (pJ)
system.mem_ctrls1_0.preBackEnergy           129969600                       # Energy for precharge background per rank (pJ)
system.mem_ctrls1_0.actPowerDownEnergy    18143801100                       # Energy for active power-down per rank (pJ)
system.mem_ctrls1_0.prePowerDownEnergy     4301478240                       # Energy for precharge power-down per rank (pJ)
system.mem_ctrls1_0.selfRefreshEnergy    234738912015                       # Energy for self refresh per rank (pJ)
system.mem_ctrls1_0.totalEnergy          265085215755                       # Total energy per rank (pJ)
system.mem_ctrls1_0.averagePower           256.355421                       # Core power per rank (mW)
system.mem_ctrls1_0.totalIdleTime        1027837396801                       # Total Idle time Per DRAM Rank
system.mem_ctrls1_0.memoryStateTime::IDLE    133876697                       # Time in different power states
system.mem_ctrls1_0.memoryStateTime::REF   1972236000                       # Time in different power states
system.mem_ctrls1_0.memoryStateTime::SREF 977347341181                       # Time in different power states
system.mem_ctrls1_0.memoryStateTime::PRE_PDN  11201226559                       # Time in different power states
system.mem_ctrls1_0.memoryStateTime::ACT   3609739290                       # Time in different power states
system.mem_ctrls1_0.memoryStateTime::ACT_PDN  39789060704                       # Time in different power states
system.mem_ctrls1_1.actEnergy               173644800                       # Energy for activate commands per rank (pJ)
system.mem_ctrls1_1.preEnergy                92294400                       # Energy for precharge commands per rank (pJ)
system.mem_ctrls1_1.readEnergy              276325140                       # Energy for read commands per rank (pJ)
system.mem_ctrls1_1.writeEnergy             114255360                       # Energy for write commands per rank (pJ)
system.mem_ctrls1_1.refreshEnergy        4508384400.000001                       # Energy for refresh commands per rank (pJ)
system.mem_ctrls1_1.actBackEnergy          2460564600                       # Energy for active background per rank (pJ)
system.mem_ctrls1_1.preBackEnergy           120465120                       # Energy for precharge background per rank (pJ)
system.mem_ctrls1_1.actPowerDownEnergy    17731188360                       # Energy for active power-down per rank (pJ)
system.mem_ctrls1_1.prePowerDownEnergy     4130152800                       # Energy for precharge power-down per rank (pJ)
system.mem_ctrls1_1.selfRefreshEnergy    235023359355                       # Energy for self refresh per rank (pJ)
system.mem_ctrls1_1.totalEnergy          264631134915                       # Total energy per rank (pJ)
system.mem_ctrls1_1.averagePower           255.916294                       # Core power per rank (mW)
system.mem_ctrls1_1.totalIdleTime        1025711476124                       # Total Idle time Per DRAM Rank
system.mem_ctrls1_1.memoryStateTime::IDLE    114275671                       # Time in different power states
system.mem_ctrls1_1.memoryStateTime::REF   1908612000                       # Time in different power states
system.mem_ctrls1_1.memoryStateTime::SREF 978702881431                       # Time in different power states
system.mem_ctrls1_1.memoryStateTime::PRE_PDN  10755251927                       # Time in different power states
system.mem_ctrls1_1.memoryStateTime::ACT   3686806206                       # Time in different power states
system.mem_ctrls1_1.memoryStateTime::ACT_PDN  38885653196                       # Time in different power states
system.pwrStateResidencyTicks::UNDEFINED 111360272234688                       # Cumulative time (in ticks) in various power states
system.cpu.branchPred.lookups                      16                       # Number of BP lookups
system.cpu.branchPred.condPredicted                16                       # Number of conditional branches predicted
system.cpu.branchPred.condIncorrect                13                       # Number of conditional branches incorrect
system.cpu.branchPred.BTBLookups                    0                       # Number of BTB lookups
system.cpu.branchPred.BTBHits                       0                       # Number of BTB hits
system.cpu.branchPred.BTBCorrect                    0                       # Number of correct BTB predictions (this stat may not work properly.
system.cpu.branchPred.BTBHitPct                   nan                       # BTB Hit Percentage
system.cpu.branchPred.usedRAS                       0                       # Number of times the RAS was used to get a target.
system.cpu.branchPred.RASInCorrect                  0                       # Number of incorrect RAS predictions.
system.cpu.branchPred.indirectLookups               0                       # Number of indirect predictor lookups.
system.cpu.branchPred.indirectHits                  0                       # Number of indirect target hits.
system.cpu.branchPred.indirectMisses                0                       # Number of indirect misses.
system.cpu.branchPredindirectMispredicted            0                       # Number of mispredicted indirect branches.
system.cpu_voltage_domain.voltage                   1                       # Voltage in Volts
system.cpu_clk_domain.clock                       333                       # Clock period in ticks
system.cpu.dtb.fetch_hits                           0                       # ITB hits
system.cpu.dtb.fetch_misses                         0                       # ITB misses
system.cpu.dtb.fetch_acv                            0                       # ITB acv
system.cpu.dtb.fetch_accesses                       0                       # ITB accesses
system.cpu.dtb.read_hits                           28                       # DTB read hits
system.cpu.dtb.read_misses                          0                       # DTB read misses
system.cpu.dtb.read_acv                             0                       # DTB read access violations
system.cpu.dtb.read_accesses                       28                       # DTB read accesses
system.cpu.dtb.write_hits                          14                       # DTB write hits
system.cpu.dtb.write_misses                         0                       # DTB write misses
system.cpu.dtb.write_acv                            0                       # DTB write access violations
system.cpu.dtb.write_accesses                      14                       # DTB write accesses
system.cpu.dtb.data_hits                           42                       # DTB hits
system.cpu.dtb.data_misses                          0                       # DTB misses
system.cpu.dtb.data_acv                             0                       # DTB access violations
system.cpu.dtb.data_accesses                       42                       # DTB accesses
system.cpu.itb.fetch_hits                          30                       # ITB hits
system.cpu.itb.fetch_misses                         0                       # ITB misses
system.cpu.itb.fetch_acv                            0                       # ITB acv
system.cpu.itb.fetch_accesses                      30                       # ITB accesses
system.cpu.itb.read_hits                            0                       # DTB read hits
system.cpu.itb.read_misses                          0                       # DTB read misses
system.cpu.itb.read_acv                             0                       # DTB read access violations
system.cpu.itb.read_accesses                        0                       # DTB read accesses
system.cpu.itb.write_hits                           0                       # DTB write hits
system.cpu.itb.write_misses                         0                       # DTB write misses
system.cpu.itb.write_acv                            0                       # DTB write access violations
system.cpu.itb.write_accesses                       0                       # DTB write accesses
system.cpu.itb.data_hits                            0                       # DTB hits
system.cpu.itb.data_misses                          0                       # DTB misses
system.cpu.itb.data_acv                             0                       # DTB access violations
system.cpu.itb.data_accesses                        0                       # DTB accesses
system.cpu.workload.num_syscalls                    8                       # Number of system calls
system.cpu.pwrStateResidencyTicks::ON    1034053480431                       # Cumulative time (in ticks) in various power states
system.cpu.numCycles                              594                       # number of cpu cycles simulated
system.cpu.numWorkItemsStarted                      0                       # number of work items this cpu started
system.cpu.numWorkItemsCompleted                    0                       # number of work items this cpu completed
system.cpu.fetch.icacheStallCycles                160                       # Number of cycles fetch is stalled on an Icache miss
system.cpu.fetch.Insts                            176                       # Number of instructions fetch has processed
system.cpu.fetch.Branches                          16                       # Number of branches that fetch encountered
system.cpu.fetch.Cycles                            29                       # Number of cycles fetch has run and was not squashing or blocked
system.cpu.fetch.SquashCycles                      29                       # Number of cycles fetch has spent squashing
system.cpu.fetch.PendingDrainCycles                23                       # Number of cycles fetch has spent waiting on pipes to drain
system.cpu.fetch.CacheLines                        30                       # Number of cache lines fetched
system.cpu.fetch.IcacheSquashes                    15                       # Number of outstanding Icache misses that were squashed
system.cpu.fetch.rateDist::samples                226                       # Number of instructions fetched each cycle (Total)
system.cpu.fetch.rateDist::mean              0.778761                       # Number of instructions fetched each cycle (Total)
system.cpu.fetch.rateDist::stdev             2.157095                       # Number of instructions fetched each cycle (Total)
system.cpu.fetch.rateDist::underflows               0      0.00%      0.00% # Number of instructions fetched each cycle (Total)
system.cpu.fetch.rateDist::0                      197     87.17%     87.17% # Number of instructions fetched each cycle (Total)
system.cpu.fetch.rateDist::1                        0      0.00%     87.17% # Number of instructions fetched each cycle (Total)
system.cpu.fetch.rateDist::2                        0      0.00%     87.17% # Number of instructions fetched each cycle (Total)
system.cpu.fetch.rateDist::3                        0      0.00%     87.17% # Number of instructions fetched each cycle (Total)
system.cpu.fetch.rateDist::4                       14      6.19%     93.36% # Number of instructions fetched each cycle (Total)
system.cpu.fetch.rateDist::5                        0      0.00%     93.36% # Number of instructions fetched each cycle (Total)
[...]
system.switch_cpus_1.iq.int_inst_queue_writes    506958973                       # Number of integer instruction queue writes
system.switch_cpus_1.iq.int_inst_queue_wakeup_accesses    502276186                       # Number of integer instruction queue wakeup accesses
system.switch_cpus_1.iq.fp_inst_queue_reads        79753                       # Number of floating instruction queue reads
system.switch_cpus_1.iq.fp_inst_queue_writes        72493                       # Number of floating instruction queue writes
system.switch_cpus_1.iq.fp_inst_queue_wakeup_accesses        35636                       # Number of floating instruction queue wakeup accesses
system.switch_cpus_1.iq.int_alu_accesses    511698351                       # Number of integer alu accesses
system.switch_cpus_1.iq.fp_alu_accesses         40349                       # Number of floating point alu accesses
system.switch_cpus_1.iew.lsq.thread0.forwLoads      5552764                       # Number of loads that had data forwarded from stores
system.switch_cpus_1.iew.lsq.thread0.invAddrLoads            0                       # Number of loads ignored due to an invalid address
system.switch_cpus_1.iew.lsq.thread0.squashedLoads       945943                       # Number of loads squashed
system.switch_cpus_1.iew.lsq.thread0.ignoredResponses          637                       # Number of memory responses ignored because the instruction is squashed
system.switch_cpus_1.iew.lsq.thread0.memOrderViolation         9833                       # Number of memory ordering violations
system.switch_cpus_1.iew.lsq.thread0.squashedStores       368046                       # Number of stores squashed
system.switch_cpus_1.iew.lsq.thread0.invAddrSwpfs            0                       # Number of software prefetches ignored due to an invalid address
system.switch_cpus_1.iew.lsq.thread0.blockedLoads            0                       # Number of blocked loads due to partial load-store forwarding
system.switch_cpus_1.iew.lsq.thread0.rescheduledLoads          130                       # Number of loads that were rescheduled
system.switch_cpus_1.iew.lsq.thread0.cacheBlocked      1073704                       # Number of times an access to memory failed due to the cache being blocked
system.switch_cpus_1.iew.iewIdleCycles              0                       # Number of cycles IEW is idle
system.switch_cpus_1.iew.iewSquashCycles        94832                       # Number of cycles IEW is squashing
system.switch_cpus_1.iew.iewBlockCycles        723176                       # Number of cycles IEW is blocking
system.switch_cpus_1.iew.iewUnblockCycles      3952157                       # Number of cycles IEW is unblocking
system.switch_cpus_1.iew.iewDispatchedInsts    503856900                       # Number of instructions dispatched to IQ
system.switch_cpus_1.iew.iewDispSquashedInsts         3253                       # Number of squashed instructions skipped by dispatch
system.switch_cpus_1.iew.iewDispLoadInsts    134432503                       # Number of dispatched load instructions
system.switch_cpus_1.iew.iewDispStoreInsts     55817935                       # Number of dispatched store instructions
system.switch_cpus_1.iew.iewDispNonSpecInsts         6168                       # Number of dispatched non-speculative instructions
system.switch_cpus_1.iew.iewIQFullEvents        31068                       # Number of times the IQ has become full, causing a stall
system.switch_cpus_1.iew.iewLSQFullEvents      3880697                       # Number of times the LSQ has become full, causing a stall
system.switch_cpus_1.iew.memOrderViolationEvents         9833                       # Number of memory order violations
system.switch_cpus_1.iew.predictedTakenIncorrect        32130                       # Number of branches that were predicted taken incorrectly
system.switch_cpus_1.iew.predictedNotTakenIncorrect        42567                       # Number of branches that were predicted not taken incorrectly
system.switch_cpus_1.iew.branchMispredicts        74697                       # Number of branch mispredicts detected at execute
system.switch_cpus_1.iew.iewExecutedInsts    503532820                       # Number of executed instructions
system.switch_cpus_1.iew.iewExecLoadInsts    135267414                       # Number of load instructions executed
system.switch_cpus_1.iew.iewExecSquashedInsts       172721                       # Number of squashed instructions skipped in execute
system.switch_cpus_1.iew.exec_swp                   0                       # number of swp insts executed
system.switch_cpus_1.iew.exec_nop              345967                       # number of nop insts executed
system.switch_cpus_1.iew.exec_refs          190937623                       # number of memory reference insts executed
system.switch_cpus_1.iew.exec_branches       22956677                       # Number of branches executed
system.switch_cpus_1.iew.exec_stores         55670209                       # Number of stores executed
system.switch_cpus_1.iew.exec_rate           3.438383                       # Inst execution rate
system.switch_cpus_1.iew.wb_sent            502446650                       # cumulative count of insts sent to commit
system.switch_cpus_1.iew.wb_count           502311822                       # cumulative count of insts written-back
system.switch_cpus_1.iew.wb_producers       325272825                       # num instructions producing a value
system.switch_cpus_1.iew.wb_consumers       446542135                       # num instructions consuming a value
system.switch_cpus_1.iew.wb_rate             3.430045                       # insts written-back per cycle
system.switch_cpus_1.iew.wb_fanout           0.728426                       # average fanout of values written-back
system.switch_cpus_1.commit.commitSquashedInsts      3361344                       # The number of squashed insts skipped by commit
system.switch_cpus_1.commit.commitNonSpecStalls         8731                       # The number of times commit has been forced to stall to communicate backwards
system.switch_cpus_1.commit.branchMispredicts        70921                       # The number of times a branch was mispredicted
system.switch_cpus_1.commit.committed_per_cycle::samples    145874037                       # Number of insts commited each cycle
system.switch_cpus_1.commit.committed_per_cycle::mean     3.429455                       # Number of insts commited each cycle
system.switch_cpus_1.commit.committed_per_cycle::stdev     3.514892                       # Number of insts commited each cycle
system.switch_cpus_1.commit.committed_per_cycle::underflows            0      0.00%      0.00% # Number of insts commited each cycle
system.switch_cpus_1.commit.committed_per_cycle::0     46620541     31.96%     31.96% # Number of insts commited each cycle
system.switch_cpus_1.commit.committed_per_cycle::1     28440104     19.50%     51.46% # Number of insts commited each cycle
system.switch_cpus_1.commit.committed_per_cycle::2      6252079      4.29%     55.74% # Number of insts commited each cycle
system.switch_cpus_1.commit.committed_per_cycle::3      7379490      5.06%     60.80% # Number of insts commited each cycle
system.switch_cpus_1.commit.committed_per_cycle::4      1019548      0.70%     61.50% # Number of insts commited each cycle
system.switch_cpus_1.commit.committed_per_cycle::5      4867588      3.34%     64.84% # Number of insts commited each cycle
system.switch_cpus_1.commit.committed_per_cycle::6       468164      0.32%     65.16% # Number of insts commited each cycle
system.switch_cpus_1.commit.committed_per_cycle::7       651566      0.45%     65.60% # Number of insts commited each cycle
system.switch_cpus_1.commit.committed_per_cycle::8     50174957     34.40%    100.00% # Number of insts commited each cycle
system.switch_cpus_1.commit.committed_per_cycle::overflows            0      0.00%    100.00% # Number of insts commited each cycle
system.switch_cpus_1.commit.committed_per_cycle::min_value            0                       # Number of insts commited each cycle
system.switch_cpus_1.commit.committed_per_cycle::max_value            8                       # Number of insts commited each cycle
system.switch_cpus_1.commit.committed_per_cycle::total    145874037                       # Number of insts commited each cycle
system.switch_cpus_1.commit.committedInsts    500268466                       # Number of instructions committed
system.switch_cpus_1.commit.committedOps    500268466                       # Number of ops (including micro ops) committed
system.switch_cpus_1.commit.swp_count               0                       # Number of s/w prefetches committed
system.switch_cpus_1.commit.refs            188936423                       # Number of memory references committed
system.switch_cpus_1.commit.loads           133486542                       # Number of loads committed
system.switch_cpus_1.commit.membars              4364                       # Number of memory barriers committed
system.switch_cpus_1.commit.branches         22747603                       # Number of branches committed
system.switch_cpus_1.commit.fp_insts            27203                       # Number of committed floating point instructions.
system.switch_cpus_1.commit.int_insts       499900780                       # Number of committed integer instructions.
system.switch_cpus_1.commit.function_calls        66082                       # Number of function calls committed.
system.switch_cpus_1.commit.op_class_0::No_OpClass       268466      0.05%      0.05% # Class of committed instruction
system.switch_cpus_1.commit.op_class_0::IntAlu    311039159     62.17%     62.23% # Class of committed instruction
system.switch_cpus_1.commit.op_class_0::IntMult           59      0.00%     62.23% # Class of committed instruction
system.switch_cpus_1.commit.op_class_0::IntDiv            0      0.00%     62.23% # Class of committed instruction
system.switch_cpus_1.commit.op_class_0::FloatAdd        11827      0.00%     62.23% # Class of committed instruction
system.switch_cpus_1.commit.op_class_0::FloatCmp         1936      0.00%     62.23% # Class of committed instruction
system.switch_cpus_1.commit.op_class_0::FloatCvt         1554      0.00%     62.23% # Class of committed instruction
system.switch_cpus_1.commit.op_class_0::FloatMult         4487      0.00%     62.23% # Class of committed instruction
system.switch_cpus_1.commit.op_class_0::FloatMultAcc            0      0.00%     62.23% # Class of committed instruction
system.switch_cpus_1.commit.op_class_0::FloatDiv          191      0.00%     62.23% # Class of committed instruction
system.switch_cpus_1.commit.op_class_0::FloatMisc            0      0.00%     62.23% # Class of committed instruction
system.switch_cpus_1.commit.op_class_0::FloatSqrt            0      0.00%     62.23% # Class of committed instruction
system.switch_cpus_1.commit.op_class_0::SimdAdd            0      0.00%     62.23% # Class of committed instruction
system.switch_cpus_1.commit.op_class_0::SimdAddAcc            0      0.00%     62.23% # Class of committed instruction
system.switch_cpus_1.commit.op_class_0::SimdAlu            0      0.00%     62.23% # Class of committed instruction
system.switch_cpus_1.commit.op_class_0::SimdCmp            0      0.00%     62.23% # Class of committed instruction
system.switch_cpus_1.commit.op_class_0::SimdCvt            0      0.00%     62.23% # Class of committed instruction
system.switch_cpus_1.commit.op_class_0::SimdMisc            0      0.00%     62.23% # Class of committed instruction
system.switch_cpus_1.commit.op_class_0::SimdMult            0      0.00%     62.23% # Class of committed instruction
system.switch_cpus_1.commit.op_class_0::SimdMultAcc            0      0.00%     62.23% # Class of committed instruction
system.switch_cpus_1.commit.op_class_0::SimdShift            0      0.00%     62.23% # Class of committed instruction
system.switch_cpus_1.commit.op_class_0::SimdShiftAcc            0      0.00%     62.23% # Class of committed instruction
system.switch_cpus_1.commit.op_class_0::SimdSqrt            0      0.00%     62.23% # Class of committed instruction
system.switch_cpus_1.commit.op_class_0::SimdFloatAdd            0      0.00%     62.23% # Class of committed instruction
system.switch_cpus_1.commit.op_class_0::SimdFloatAlu            0      0.00%     62.23% # Class of committed instruction
system.switch_cpus_1.commit.op_class_0::SimdFloatCmp            0      0.00%     62.23% # Class of committed instruction
system.switch_cpus_1.commit.op_class_0::SimdFloatCvt            0      0.00%     62.23% # Class of committed instruction
system.switch_cpus_1.commit.op_class_0::SimdFloatDiv            0      0.00%     62.23% # Class of committed instruction
system.switch_cpus_1.commit.op_class_0::SimdFloatMisc            0      0.00%     62.23% # Class of committed instruction
system.switch_cpus_1.commit.op_class_0::SimdFloatMult            0      0.00%     62.23% # Class of committed instruction
system.switch_cpus_1.commit.op_class_0::SimdFloatMultAcc            0      0.00%     62.23% # Class of committed instruction
system.switch_cpus_1.commit.op_class_0::SimdFloatSqrt            0      0.00%     62.23% # Class of committed instruction
system.switch_cpus_1.commit.op_class_0::MemRead    133484605     26.68%     88.91% # Class of committed instruction
system.switch_cpus_1.commit.op_class_0::MemWrite     55448974     11.08%    100.00% # Class of committed instruction
system.switch_cpus_1.commit.op_class_0::FloatMemRead         6301      0.00%    100.00% # Class of committed instruction
system.switch_cpus_1.commit.op_class_0::FloatMemWrite          907      0.00%    100.00% # Class of committed instruction
system.switch_cpus_1.commit.op_class_0::IprAccess            0      0.00%    100.00% # Class of committed instruction
system.switch_cpus_1.commit.op_class_0::InstPrefetch            0      0.00%    100.00% # Class of committed instruction
system.switch_cpus_1.commit.op_class_0::total    500268466                       # Class of committed instruction
system.switch_cpus_1.commit.bw_lim_events     50174957                       # number cycles where commit BW limit reached
system.switch_cpus_1.rob.rob_reads          599125388                       # The number of ROB reads
system.switch_cpus_1.rob.rob_writes        1007751493                       # The number of ROB writes
system.switch_cpus_1.timesIdled                  3271                       # Number of times that the entire CPU went into an idle state and unscheduled itself
system.switch_cpus_1.idleCycles                 84612                       # Total number of cycles that the CPU has spent unscheduled due to idling
system.switch_cpus_1.committedInsts         500000000                       # Number of Instructions Simulated
system.switch_cpus_1.committedOps           500000000                       # Number of Ops (including micro ops) Simulated
system.switch_cpus_1.cpi                     0.292889                       # CPI: Cycles Per Instruction
system.switch_cpus_1.cpi_total               0.292889                       # CPI: Total CPI of All Threads
system.switch_cpus_1.ipc                     3.414259                       # IPC: Instructions Per Cycle
system.switch_cpus_1.ipc_total               3.414259                       # IPC: Total IPC of All Threads
system.switch_cpus_1.int_regfile_reads      808200885                       # number of integer regfile reads
system.switch_cpus_1.int_regfile_writes     423855305                       # number of integer regfile writes
system.switch_cpus_1.fp_regfile_reads           46313                       # number of floating regfile reads
system.switch_cpus_1.fp_regfile_writes          30638                       # number of floating regfile writes
system.switch_cpus_1.misc_regfile_reads         40078                       # number of misc regfile reads
system.switch_cpus_1.misc_regfile_writes         8728                       # number of misc regfile writes
system.tol3bus.snoop_filter.tot_requests      6822927                       # Total number of requests made to the snoop filter.
system.tol3bus.snoop_filter.hit_single_requests      3409150                       # Number of requests hitting in the snoop filter with a single holder of the requested data.
system.tol3bus.snoop_filter.hit_multi_requests            0                       # Number of requests hitting in the snoop filter with multiple (>1) holders of the requested data.
system.tol3bus.snoop_filter.tot_snoops            886                       # Total number of snoops made to the snoop filter.
system.tol3bus.snoop_filter.hit_single_snoops          886                       # Number of snoops hitting in the snoop filter with a single holder of the requested data.
system.tol3bus.snoop_filter.hit_multi_snoops            0                       # Number of snoops hitting in the snoop filter with multiple (>1) holders of the requested data.
system.tol3bus.pwrStateResidencyTicks::UNDEFINED 111360272234688                       # Cumulative time (in ticks) in various power states
system.tol3bus.trans_dist::ReadResp            266489                       # Transaction distribution
system.tol3bus.trans_dist::WritebackDirty      3282088                       # Transaction distribution
system.tol3bus.trans_dist::CleanEvict          217086                       # Transaction distribution
system.tol3bus.trans_dist::ReadExReq          3147288                       # Transaction distribution
system.tol3bus.trans_dist::ReadExResp         3147288                       # Transaction distribution
system.tol3bus.trans_dist::ReadSharedReq       266489                       # Transaction distribution
system.tol3bus.pkt_count_system.cpu.l2.mem_side::system.l3.cpu_side     10236704                       # Packet count per connected master and slave (bytes)
system.tol3bus.pkt_size_system.cpu.l2.mem_side::system.l3.cpu_side    422906944                       # Cumulative packet size per connected master and slave (bytes)
system.tol3bus.snoops                           90024                       # Total snoops (count)
system.tol3bus.snoopTraffic                   5628416                       # Total snoop traffic (bytes)
system.tol3bus.snoop_fanout::samples          3503801                       # Request fanout histogram
system.tol3bus.snoop_fanout::mean            0.000253                       # Request fanout histogram
system.tol3bus.snoop_fanout::stdev           0.015900                       # Request fanout histogram
system.tol3bus.snoop_fanout::underflows             0      0.00%      0.00% # Request fanout histogram
system.tol3bus.snoop_fanout::0                3502915     99.97%     99.97% # Request fanout histogram
system.tol3bus.snoop_fanout::1                    886      0.03%    100.00% # Request fanout histogram
system.tol3bus.snoop_fanout::overflows              0      0.00%    100.00% # Request fanout histogram
system.tol3bus.snoop_fanout::min_value              0                       # Request fanout histogram
system.tol3bus.snoop_fanout::max_value              1                       # Request fanout histogram
system.tol3bus.snoop_fanout::total            3503801                       # Request fanout histogram
system.tol3bus.reqLayer0.occupancy         3335684643                       # Layer occupancy (ticks)
system.tol3bus.reqLayer0.utilization              0.3                       # Layer utilization (%)
system.tol3bus.respLayer0.occupancy        2273575482                       # Layer occupancy (ticks)
system.tol3bus.respLayer0.utilization             0.2                       # Layer utilization (%)

---------- End Simulation Statistics   ----------
