
---------- Begin Simulation Statistics ----------
sim_seconds                                  1.052499                       # Number of seconds simulated
sim_ticks                                1052498950497                       # Number of ticks simulated
final_tick                               176603783072364                       # Number of ticks from beginning of simulation (restored from checkpoints and never reset)
sim_freq                                 1000000000000                       # Frequency of simulated ticks
host_inst_rate                                 533936                       # Simulator instruction rate (inst/s)
host_op_rate                                   533936                       # Simulator op (including micro ops) rate (op/s)
host_tick_rate                              374644963                       # Simulator tick rate (ticks/s)
host_mem_usage                                2388788                       # Number of bytes of host memory used
host_seconds                                  2809.32                       # Real time elapsed on the host
sim_insts                                  1500000008                       # Number of instructions simulated
sim_ops                                    1500000008                       # Number of ops (including micro ops) simulated
system.voltage_domain.voltage                       1                       # Voltage in Volts
system.clk_domain.clock                          1000                       # Clock period in ticks
system.mem_ctrls0.pwrStateResidencyTicks::UNDEFINED 176603783072364                       # Cumulative time (in ticks) in various power states
system.mem_ctrls0.bytes_read::cpu.inst             64                       # Number of bytes read from this memory
system.mem_ctrls0.bytes_read::cpu.data            192                       # Number of bytes read from this memory
system.mem_ctrls0.bytes_read::switch_cpus.inst        48832                       # Number of bytes read from this memory
system.mem_ctrls0.bytes_read::switch_cpus.data      2283264                       # Number of bytes read from this memory
system.mem_ctrls0.bytes_read::switch_cpus_1.inst        15808                       # Number of bytes read from this memory
system.mem_ctrls0.bytes_read::switch_cpus_1.data       572864                       # Number of bytes read from this memory
system.mem_ctrls0.bytes_read::total           2921024                       # Number of bytes read from this memory
system.mem_ctrls0.bytes_inst_read::cpu.inst           64                       # Number of instructions bytes read from this memory
system.mem_ctrls0.bytes_inst_read::switch_cpus.inst        48832                       # Number of instructions bytes read from this memory
system.mem_ctrls0.bytes_inst_read::switch_cpus_1.inst        15808                       # Number of instructions bytes read from this memory
system.mem_ctrls0.bytes_inst_read::total        64704                       # Number of instructions bytes read from this memory
system.mem_ctrls0.bytes_written::writebacks       145472                       # Number of bytes written to this memory
system.mem_ctrls0.bytes_written::total         145472                       # Number of bytes written to this memory
system.mem_ctrls0.num_reads::cpu.inst               1                       # Number of read requests responded to by this memory
system.mem_ctrls0.num_reads::cpu.data               3                       # Number of read requests responded to by this memory
system.mem_ctrls0.num_reads::switch_cpus.inst          763                       # Number of read requests responded to by this memory
system.mem_ctrls0.num_reads::switch_cpus.data        35676                       # Number of read requests responded to by this memory
system.mem_ctrls0.num_reads::switch_cpus_1.inst          247                       # Number of read requests responded to by this memory
system.mem_ctrls0.num_reads::switch_cpus_1.data         8951                       # Number of read requests responded to by this memory
system.mem_ctrls0.num_reads::total              45641                       # Number of read requests responded to by this memory
system.mem_ctrls0.num_writes::writebacks         2273                       # Number of write requests responded to by this memory
system.mem_ctrls0.num_writes::total              2273                       # Number of write requests responded to by this memory
system.mem_ctrls0.bw_read::cpu.inst                61                       # Total read bandwidth from this memory (bytes/s)
system.mem_ctrls0.bw_read::cpu.data               182                       # Total read bandwidth from this memory (bytes/s)
system.mem_ctrls0.bw_read::switch_cpus.inst        46396                       # Total read bandwidth from this memory (bytes/s)
system.mem_ctrls0.bw_read::switch_cpus.data      2169374                       # Total read bandwidth from this memory (bytes/s)
system.mem_ctrls0.bw_read::switch_cpus_1.inst        15019                       # Total read bandwidth from this memory (bytes/s)
system.mem_ctrls0.bw_read::switch_cpus_1.data       544289                       # Total read bandwidth from this memory (bytes/s)
system.mem_ctrls0.bw_read::total              2775322                       # Total read bandwidth from this memory (bytes/s)
system.mem_ctrls0.bw_inst_read::cpu.inst           61                       # Instruction read bandwidth from this memory (bytes/s)
system.mem_ctrls0.bw_inst_read::switch_cpus.inst        46396                       # Instruction read bandwidth from this memory (bytes/s)
system.mem_ctrls0.bw_inst_read::switch_cpus_1.inst        15019                       # Instruction read bandwidth from this memory (bytes/s)
system.mem_ctrls0.bw_inst_read::total           61477                       # Instruction read bandwidth from this memory (bytes/s)
system.mem_ctrls0.bw_write::writebacks         138216                       # Write bandwidth from this memory (bytes/s)
system.mem_ctrls0.bw_write::total              138216                       # Write bandwidth from this memory (bytes/s)
system.mem_ctrls0.bw_total::writebacks         138216                       # Total bandwidth to/from this memory (bytes/s)
system.mem_ctrls0.bw_total::cpu.inst               61                       # Total bandwidth to/from this memory (bytes/s)
system.mem_ctrls0.bw_total::cpu.data              182                       # Total bandwidth to/from this memory (bytes/s)
system.mem_ctrls0.bw_total::switch_cpus.inst        46396                       # Total bandwidth to/from this memory (bytes/s)
system.mem_ctrls0.bw_total::switch_cpus.data      2169374                       # Total bandwidth to/from this memory (bytes/s)
system.mem_ctrls0.bw_total::switch_cpus_1.inst        15019                       # Total bandwidth to/from this memory (bytes/s)
system.mem_ctrls0.bw_total::switch_cpus_1.data       544289                       # Total bandwidth to/from this memory (bytes/s)
system.mem_ctrls0.bw_total::total             2913538                       # Total bandwidth to/from this memory (bytes/s)
system.mem_ctrls0.readReqs                      45641                       # Number of read requests accepted
system.mem_ctrls0.writeReqs                      2273                       # Number of write requests accepted
system.mem_ctrls0.readBursts                    45641                       # Number of DRAM read bursts, including those serviced by the write queue
system.mem_ctrls0.writeBursts                    2273                       # Number of DRAM write bursts, including those merged in the write queue
system.mem_ctrls0.bytesReadDRAM               2866752                       # Total number of bytes read from DRAM
system.mem_ctrls0.bytesReadWrQ                  54272                       # Total number of bytes read from write queue
system.mem_ctrls0.bytesWritten                 143168                       # Total number of bytes written to DRAM
system.mem_ctrls0.bytesReadSys                2921024                       # Total read bytes from the system interface side
system.mem_ctrls0.bytesWrittenSys              145472                       # Total written bytes from the system interface side
system.mem_ctrls0.servicedByWrQ                   848                       # Number of DRAM read bursts serviced by the write queue
system.mem_ctrls0.mergedWrBursts                    4                       # Number of DRAM write bursts merged with an existing one
system.mem_ctrls0.neitherReadNorWriteReqs            0                       # Number of requests that are neither read nor write
system.mem_ctrls0.perBankRdBursts::0             2796                       # Per bank write bursts
system.mem_ctrls0.perBankRdBursts::1             2421                       # Per bank write bursts
system.mem_ctrls0.perBankRdBursts::2             2535                       # Per bank write bursts
system.mem_ctrls0.perBankRdBursts::3             2701                       # Per bank write bursts
system.mem_ctrls0.perBankRdBursts::4             2552                       # Per bank write bursts
system.mem_ctrls0.perBankRdBursts::5             2746                       # Per bank write bursts
system.mem_ctrls0.perBankRdBursts::6             2962                       # Per bank write bursts
system.mem_ctrls0.perBankRdBursts::7             2804                       # Per bank write bursts
system.mem_ctrls0.perBankRdBursts::8             2825                       # Per bank write bursts
system.mem_ctrls0.perBankRdBursts::9             2905                       # Per bank write bursts
system.mem_ctrls0.perBankRdBursts::10            3017                       # Per bank write bursts
system.mem_ctrls0.perBankRdBursts::11            2834                       # Per bank write bursts
system.mem_ctrls0.perBankRdBursts::12            2927                       # Per bank write bursts
system.mem_ctrls0.perBankRdBursts::13            2808                       # Per bank write bursts
system.mem_ctrls0.perBankRdBursts::14            3162                       # Per bank write bursts
system.mem_ctrls0.perBankRdBursts::15            2798                       # Per bank write bursts
system.mem_ctrls0.perBankWrBursts::0              155                       # Per bank write bursts
system.mem_ctrls0.perBankWrBursts::1               50                       # Per bank write bursts
system.mem_ctrls0.perBankWrBursts::2              130                       # Per bank write bursts
system.mem_ctrls0.perBankWrBursts::3               90                       # Per bank write bursts
system.mem_ctrls0.perBankWrBursts::4              140                       # Per bank write bursts
system.mem_ctrls0.perBankWrBursts::5               95                       # Per bank write bursts
system.mem_ctrls0.perBankWrBursts::6              186                       # Per bank write bursts
system.mem_ctrls0.perBankWrBursts::7              118                       # Per bank write bursts
system.mem_ctrls0.perBankWrBursts::8              167                       # Per bank write bursts
system.mem_ctrls0.perBankWrBursts::9               87                       # Per bank write bursts
system.mem_ctrls0.perBankWrBursts::10             128                       # Per bank write bursts
system.mem_ctrls0.perBankWrBursts::11             171                       # Per bank write bursts
system.mem_ctrls0.perBankWrBursts::12             180                       # Per bank write bursts
system.mem_ctrls0.perBankWrBursts::13             112                       # Per bank write bursts
system.mem_ctrls0.perBankWrBursts::14             272                       # Per bank write bursts
system.mem_ctrls0.perBankWrBursts::15             156                       # Per bank write bursts
system.mem_ctrls0.numRdRetry                        0                       # Number of times read queue was full causing retry
system.mem_ctrls0.numWrRetry                        0                       # Number of times write queue was full causing retry
system.mem_ctrls0.totGap                 1052478515952                       # Total gap between requests
system.mem_ctrls0.readPktSize::0                    0                       # Read request sizes (log2)
system.mem_ctrls0.readPktSize::1                    0                       # Read request sizes (log2)
system.mem_ctrls0.readPktSize::2                    0                       # Read request sizes (log2)
system.mem_ctrls0.readPktSize::3                    0                       # Read request sizes (log2)
system.mem_ctrls0.readPktSize::4                    0                       # Read request sizes (log2)
system.mem_ctrls0.readPktSize::5                    0                       # Read request sizes (log2)
system.mem_ctrls0.readPktSize::6                45641                       # Read request sizes (log2)
system.mem_ctrls0.writePktSize::0                   0                       # Write request sizes (log2)
system.mem_ctrls0.writePktSize::1                   0                       # Write request sizes (log2)
system.mem_ctrls0.writePktSize::2                   0                       # Write request sizes (log2)
system.mem_ctrls0.writePktSize::3                   0                       # Write request sizes (log2)
system.mem_ctrls0.writePktSize::4                   0                       # Write request sizes (log2)
system.mem_ctrls0.writePktSize::5                   0                       # Write request sizes (log2)
system.mem_ctrls0.writePktSize::6                2273                       # Write request sizes (log2)
system.mem_ctrls0.rdQLenPdf::0                  44486                       # What read queue length does an incoming req see
system.mem_ctrls0.rdQLenPdf::1                    300                       # What read queue length does an incoming req see
system.mem_ctrls0.rdQLenPdf::2                      6                       # What read queue length does an incoming req see
system.mem_ctrls0.rdQLenPdf::3                      1                       # What read queue length does an incoming req see
system.mem_ctrls0.rdQLenPdf::4                      0                       # What read queue length does an incoming req see
system.mem_ctrls0.rdQLenPdf::5                      0                       # What read queue length does an incoming req see
system.mem_ctrls0.rdQLenPdf::6                      0                       # What read queue length does an incoming req see
system.mem_ctrls0.rdQLenPdf::7                      0                       # What read queue length does an incoming req see
system.mem_ctrls0.rdQLenPdf::8                      0                       # What read queue length does an incoming req see
system.mem_ctrls0.rdQLenPdf::9                      0                       # What read queue length does an incoming req see
system.mem_ctrls0.rdQLenPdf::10                     0                       # What read queue length does an incoming req see
system.mem_ctrls0.rdQLenPdf::11                     0                       # What read queue length does an incoming req see
system.mem_ctrls0.rdQLenPdf::12                     0                       # What read queue length does an incoming req see
system.mem_ctrls0.rdQLenPdf::13                     0                       # What read queue length does an incoming req see
system.mem_ctrls0.rdQLenPdf::14                     0                       # What read queue length does an incoming req see
system.mem_ctrls0.rdQLenPdf::15                     0                       # What read queue length does an incoming req see
system.mem_ctrls0.rdQLenPdf::16                     0                       # What read queue length does an incoming req see
system.mem_ctrls0.rdQLenPdf::17                     0                       # What read queue length does an incoming req see
system.mem_ctrls0.rdQLenPdf::18                     0                       # What read queue length does an incoming req see
system.mem_ctrls0.rdQLenPdf::19                     0                       # What read queue length does an incoming req see
system.mem_ctrls0.rdQLenPdf::20                     0                       # What read queue length does an incoming req see
system.mem_ctrls0.rdQLenPdf::21                     0                       # What read queue length does an incoming req see
system.mem_ctrls0.rdQLenPdf::22                     0                       # What read queue length does an incoming req see
system.mem_ctrls0.rdQLenPdf::23                     0                       # What read queue length does an incoming req see
system.mem_ctrls0.rdQLenPdf::24                     0                       # What read queue length does an incoming req see
system.mem_ctrls0.rdQLenPdf::25                     0                       # What read queue length does an incoming req see
system.mem_ctrls0.rdQLenPdf::26                     0                       # What read queue length does an incoming req see
system.mem_ctrls0.rdQLenPdf::27                     0                       # What read queue length does an incoming req see
system.mem_ctrls0.rdQLenPdf::28                     0                       # What read queue length does an incoming req see
system.mem_ctrls0.rdQLenPdf::29                     0                       # What read queue length does an incoming req see
system.mem_ctrls0.rdQLenPdf::30                     0                       # What read queue length does an incoming req see
system.mem_ctrls0.rdQLenPdf::31                     0                       # What read queue length does an incoming req see
system.mem_ctrls0.wrQLenPdf::0                      2                       # What write queue length does an incoming req see
system.mem_ctrls0.wrQLenPdf::1                      2                       # What write queue length does an incoming req see
system.mem_ctrls0.wrQLenPdf::2                      2                       # What write queue length does an incoming req see
system.mem_ctrls0.wrQLenPdf::3                      2                       # What write queue length does an incoming req see
system.mem_ctrls0.wrQLenPdf::4                      2                       # What write queue length does an incoming req see
system.mem_ctrls0.wrQLenPdf::5                      2                       # What write queue length does an incoming req see
system.mem_ctrls0.wrQLenPdf::6                      2                       # What write queue length does an incoming req see
system.mem_ctrls0.wrQLenPdf::7                      2                       # What write queue length does an incoming req see
system.mem_ctrls0.wrQLenPdf::8                      2                       # What write queue length does an incoming req see
system.mem_ctrls0.wrQLenPdf::9                      2                       # What write queue length does an incoming req see
system.mem_ctrls0.wrQLenPdf::10                     2                       # What write queue length does an incoming req see
system.mem_ctrls0.wrQLenPdf::11                     2                       # What write queue length does an incoming req see
system.mem_ctrls0.wrQLenPdf::12                     2                       # What write queue length does an incoming req see
system.mem_ctrls0.wrQLenPdf::13                     2                       # What write queue length does an incoming req see
system.mem_ctrls0.wrQLenPdf::14                     2                       # What write queue length does an incoming req see
system.mem_ctrls0.wrQLenPdf::15                   112                       # What write queue length does an incoming req see
system.mem_ctrls0.wrQLenPdf::16                   113                       # What write queue length does an incoming req see
system.mem_ctrls0.wrQLenPdf::17                   125                       # What write queue length does an incoming req see
system.mem_ctrls0.wrQLenPdf::18                   126                       # What write queue length does an incoming req see
system.mem_ctrls0.wrQLenPdf::19                   126                       # What write queue length does an incoming req see
system.mem_ctrls0.wrQLenPdf::20                   127                       # What write queue length does an incoming req see
system.mem_ctrls0.wrQLenPdf::21                   126                       # What write queue length does an incoming req see
system.mem_ctrls0.wrQLenPdf::22                   126                       # What write queue length does an incoming req see
system.mem_ctrls0.wrQLenPdf::23                   126                       # What write queue length does an incoming req see
system.mem_ctrls0.wrQLenPdf::24                   127                       # What write queue length does an incoming req see
system.mem_ctrls0.wrQLenPdf::25                   126                       # What write queue length does an incoming req see
system.mem_ctrls0.wrQLenPdf::26                   126                       # What write queue length does an incoming req see
system.mem_ctrls0.wrQLenPdf::27                   126                       # What write queue length does an incoming req see
system.mem_ctrls0.wrQLenPdf::28                   125                       # What write queue length does an incoming req see
system.mem_ctrls0.wrQLenPdf::29                   125                       # What write queue length does an incoming req see
system.mem_ctrls0.wrQLenPdf::30                   125                       # What write queue length does an incoming req see
system.mem_ctrls0.wrQLenPdf::31                   125                       # What write queue length does an incoming req see
system.mem_ctrls0.wrQLenPdf::32                   124                       # What write queue length does an incoming req see
system.mem_ctrls0.wrQLenPdf::33                     3                       # What write queue length does an incoming req see
system.mem_ctrls0.wrQLenPdf::34                     0                       # What write queue length does an incoming req see
system.mem_ctrls0.wrQLenPdf::35                     0                       # What write queue length does an incoming req see
system.mem_ctrls0.wrQLenPdf::36                     0                       # What write queue length does an incoming req see
system.mem_ctrls0.wrQLenPdf::37                     0                       # What write queue length does an incoming req see
system.mem_ctrls0.wrQLenPdf::38                     0                       # What write queue length does an incoming req see
system.mem_ctrls0.wrQLenPdf::39                     0                       # What write queue length does an incoming req see
system.mem_ctrls0.wrQLenPdf::40                     0                       # What write queue length does an incoming req see
system.mem_ctrls0.wrQLenPdf::41                     0                       # What write queue length does an incoming req see
system.mem_ctrls0.wrQLenPdf::42                     0                       # What write queue length does an incoming req see
system.mem_ctrls0.wrQLenPdf::43                     0                       # What write queue length does an incoming req see
system.mem_ctrls0.wrQLenPdf::44                     0                       # What write queue length does an incoming req see
system.mem_ctrls0.wrQLenPdf::45                     0                       # What write queue length does an incoming req see
system.mem_ctrls0.wrQLenPdf::46                     0                       # What write queue length does an incoming req see
system.mem_ctrls0.wrQLenPdf::47                     0                       # What write queue length does an incoming req see
system.mem_ctrls0.wrQLenPdf::48                     0                       # What write queue length does an incoming req see
system.mem_ctrls0.wrQLenPdf::49                     0                       # What write queue length does an incoming req see
system.mem_ctrls0.wrQLenPdf::50                     0                       # What write queue length does an incoming req see
system.mem_ctrls0.wrQLenPdf::51                     0                       # What write queue length does an incoming req see
system.mem_ctrls0.wrQLenPdf::52                     0                       # What write queue length does an incoming req see
system.mem_ctrls0.wrQLenPdf::53                     0                       # What write queue length does an incoming req see
system.mem_ctrls0.wrQLenPdf::54                     0                       # What write queue length does an incoming req see
system.mem_ctrls0.wrQLenPdf::55                     0                       # What write queue length does an incoming req see
system.mem_ctrls0.wrQLenPdf::56                     0                       # What write queue length does an incoming req see
system.mem_ctrls0.wrQLenPdf::57                     0                       # What write queue length does an incoming req see
system.mem_ctrls0.wrQLenPdf::58                     0                       # What write queue length does an incoming req see
system.mem_ctrls0.wrQLenPdf::59                     0                       # What write queue length does an incoming req see
system.mem_ctrls0.wrQLenPdf::60                     0                       # What write queue length does an incoming req see
system.mem_ctrls0.wrQLenPdf::61                     0                       # What write queue length does an incoming req see
system.mem_ctrls0.wrQLenPdf::62                     0                       # What write queue length does an incoming req see
system.mem_ctrls0.wrQLenPdf::63                     0                       # What write queue length does an incoming req see
system.mem_ctrls0.bytesPerActivate::samples        17581                       # Bytes accessed per row activation
system.mem_ctrls0.bytesPerActivate::mean   171.203003                       # Bytes accessed per row activation
system.mem_ctrls0.bytesPerActivate::gmean   120.956517                       # Bytes accessed per row activation
system.mem_ctrls0.bytesPerActivate::stdev   187.938254                       # Bytes accessed per row activation
system.mem_ctrls0.bytesPerActivate::0-127         8599     48.91%     48.91% # Bytes accessed per row activation
system.mem_ctrls0.bytesPerActivate::128-255         5598     31.84%     80.75% # Bytes accessed per row activation
system.mem_ctrls0.bytesPerActivate::256-383         1343      7.64%     88.39% # Bytes accessed per row activation
system.mem_ctrls0.bytesPerActivate::384-511         1037      5.90%     94.29% # Bytes accessed per row activation
system.mem_ctrls0.bytesPerActivate::512-639          211      1.20%     95.49% # Bytes accessed per row activation
system.mem_ctrls0.bytesPerActivate::640-767          131      0.75%     96.23% # Bytes accessed per row activation
system.mem_ctrls0.bytesPerActivate::768-895          160      0.91%     97.14% # Bytes accessed per row activation
system.mem_ctrls0.bytesPerActivate::896-1023          239      1.36%     98.50% # Bytes accessed per row activation
system.mem_ctrls0.bytesPerActivate::1024-1151          263      1.50%    100.00% # Bytes accessed per row activation
system.mem_ctrls0.bytesPerActivate::total        17581                       # Bytes accessed per row activation
system.mem_ctrls0.rdPerTurnAround::samples          125                       # Reads before turning the bus around for writes
system.mem_ctrls0.rdPerTurnAround::mean    357.904000                       # Reads before turning the bus around for writes
system.mem_ctrls0.rdPerTurnAround::gmean    81.848131                       # Reads before turning the bus around for writes
system.mem_ctrls0.rdPerTurnAround::stdev  2594.917319                       # Reads before turning the bus around for writes
system.mem_ctrls0.rdPerTurnAround::0-1023          124     99.20%     99.20% # Reads before turning the bus around for writes
system.mem_ctrls0.rdPerTurnAround::28672-29695            1      0.80%    100.00% # Reads before turning the bus around for writes
system.mem_ctrls0.rdPerTurnAround::total          125                       # Reads before turning the bus around for writes
system.mem_ctrls0.wrPerTurnAround::samples          125                       # Writes before turning the bus around for reads
system.mem_ctrls0.wrPerTurnAround::mean     17.896000                       # Writes before turning the bus around for reads
system.mem_ctrls0.wrPerTurnAround::gmean    17.865606                       # Writes before turning the bus around for reads
system.mem_ctrls0.wrPerTurnAround::stdev     1.134673                       # Writes before turning the bus around for reads
system.mem_ctrls0.wrPerTurnAround::16              14     11.20%     11.20% # Writes before turning the bus around for reads
system.mem_ctrls0.wrPerTurnAround::18             105     84.00%     95.20% # Writes before turning the bus around for reads
system.mem_ctrls0.wrPerTurnAround::19               5      4.00%     99.20% # Writes before turning the bus around for reads
system.mem_ctrls0.wrPerTurnAround::28               1      0.80%    100.00% # Writes before turning the bus around for reads
system.mem_ctrls0.wrPerTurnAround::total          125                       # Writes before turning the bus around for reads
system.mem_ctrls0.totQLat                  3492274277                       # Total ticks spent queuing
system.mem_ctrls0.totMemAccLat             4332143027                       # Total ticks spent from burst creation until serviced by the DRAM
system.mem_ctrls0.totBusLat                 223965000                       # Total ticks spent in databus transfers
system.mem_ctrls0.avgQLat                    77964.73                       # Average queueing delay per DRAM burst
system.mem_ctrls0.avgBusLat                   5000.00                       # Average bus latency per DRAM burst
system.mem_ctrls0.avgMemAccLat               96714.73                       # Average memory access latency per DRAM burst
system.mem_ctrls0.avgRdBW                        2.72                       # Average DRAM read bandwidth in MiByte/s
system.mem_ctrls0.avgWrBW                        0.14                       # Average achieved write bandwidth in MiByte/s
system.mem_ctrls0.avgRdBWSys                     2.78                       # Average system read bandwidth in MiByte/s
system.mem_ctrls0.avgWrBWSys                     0.14                       # Average system write bandwidth in MiByte/s
system.mem_ctrls0.peakBW                     12800.00                       # Theoretical peak bandwidth in MiByte/s
system.mem_ctrls0.busUtil                        0.02                       # Data bus utilization in percentage
system.mem_ctrls0.busUtilRead                    0.02                       # Data bus utilization in percentage for reads
system.mem_ctrls0.busUtilWrite                   0.00                       # Data bus utilization in percentage for writes
system.mem_ctrls0.avgRdQLen                      1.00                       # Average read queue length when enqueuing
system.mem_ctrls0.avgWrQLen                     13.48                       # Average write queue length when enqueuing
system.mem_ctrls0.readRowHits                   29071                       # Number of row buffer hits during reads
system.mem_ctrls0.writeRowHits                    378                       # Number of row buffer hits during writes
system.mem_ctrls0.readRowHitRate                64.90                       # Row buffer hit rate for reads
system.mem_ctrls0.writeRowHitRate               16.66                       # Row buffer hit rate for writes
system.mem_ctrls0.avgGap                  21965991.48                       # Average gap between requests
system.mem_ctrls0.pageHitRate                   62.57                       # Row buffer hit rate, read and write combined
system.mem_ctrls0_0.actEnergy                56513100                       # Energy for activate commands per rank (pJ)
system.mem_ctrls0_0.preEnergy                30037425                       # Energy for precharge commands per rank (pJ)
system.mem_ctrls0_0.readEnergy              153631380                       # Energy for read commands per rank (pJ)
system.mem_ctrls0_0.writeEnergy               5032080                       # Energy for write commands per rank (pJ)
system.mem_ctrls0_0.refreshEnergy        5657761200.000001                       # Energy for refresh commands per rank (pJ)
system.mem_ctrls0_0.actBackEnergy          1587720750                       # Energy for active background per rank (pJ)
system.mem_ctrls0_0.preBackEnergy           341155680                       # Energy for precharge background per rank (pJ)
system.mem_ctrls0_0.actPowerDownEnergy    12458059080                       # Energy for active power-down per rank (pJ)
system.mem_ctrls0_0.prePowerDownEnergy     8298406560                       # Energy for precharge power-down per rank (pJ)
system.mem_ctrls0_0.selfRefreshEnergy    241207586235                       # Energy for self refresh per rank (pJ)
system.mem_ctrls0_0.totalEnergy          269798967180                       # Total energy per rank (pJ)
system.mem_ctrls0_0.averagePower           256.341317                       # Core power per rank (mW)
system.mem_ctrls0_0.totalIdleTime        1047955073634                       # Total Idle time Per DRAM Rank
system.mem_ctrls0_0.memoryStateTime::IDLE    695000048                       # Time in different power states
system.mem_ctrls0_0.memoryStateTime::REF   2409020000                       # Time in different power states
system.mem_ctrls0_0.memoryStateTime::SREF 999191136497                       # Time in different power states
system.mem_ctrls0_0.memoryStateTime::PRE_PDN  21610443831                       # Time in different power states
system.mem_ctrls0_0.memoryStateTime::ACT   1272958838                       # Time in different power states
system.mem_ctrls0_0.memoryStateTime::ACT_PDN  27320391283                       # Time in different power states
system.mem_ctrls0_1.actEnergy                69015240                       # Energy for activate commands per rank (pJ)
system.mem_ctrls0_1.preEnergy                36682470                       # Energy for precharge commands per rank (pJ)
system.mem_ctrls0_1.readEnergy              166190640                       # Energy for read commands per rank (pJ)
system.mem_ctrls0_1.writeEnergy               6645060                       # Energy for write commands per rank (pJ)
system.mem_ctrls0_1.refreshEnergy        6971861520.000002                       # Energy for refresh commands per rank (pJ)
system.mem_ctrls0_1.actBackEnergy          1853973450                       # Energy for active background per rank (pJ)
system.mem_ctrls0_1.preBackEnergy           419253600                       # Energy for precharge background per rank (pJ)
system.mem_ctrls0_1.actPowerDownEnergy    15293835300                       # Energy for active power-down per rank (pJ)
system.mem_ctrls0_1.prePowerDownEnergy    10504697760                       # Energy for precharge power-down per rank (pJ)
system.mem_ctrls0_1.selfRefreshEnergy    238444391325                       # Energy for self refresh per rank (pJ)
system.mem_ctrls0_1.totalEnergy          273770488755                       # Total energy per rank (pJ)
system.mem_ctrls0_1.averagePower           260.114738                       # Core power per rank (mW)
system.mem_ctrls0_1.totalIdleTime        1047328408220                       # Total Idle time Per DRAM Rank
system.mem_ctrls0_1.memoryStateTime::IDLE    853054772                       # Time in different power states
system.mem_ctrls0_1.memoryStateTime::REF   2968128000                       # Time in different power states
system.mem_ctrls0_1.memoryStateTime::SREF 986437518247                       # Time in different power states
system.mem_ctrls0_1.memoryStateTime::PRE_PDN  27355953926                       # Time in different power states
system.mem_ctrls0_1.memoryStateTime::ACT   1345163330                       # Time in different power states
system.mem_ctrls0_1.memoryStateTime::ACT_PDN  33539132222                       # Time in different power states
system.mem_ctrls1.pwrStateResidencyTicks::UNDEFINED 176603783072364                       # Cumulative time (in ticks) in various power states
system.mem_ctrls1.bytes_read::cpu.inst            192                       # Number of bytes read from this memory
system.mem_ctrls1.bytes_read::cpu.data            128                       # Number of bytes read from this memory
system.mem_ctrls1.bytes_read::switch_cpus.inst        48896                       # Number of bytes read from this memory
system.mem_ctrls1.bytes_read::switch_cpus.data      2280192                       # Number of bytes read from this memory
system.mem_ctrls1.bytes_read::switch_cpus_1.inst        18240                       # Number of bytes read from this memory
system.mem_ctrls1.bytes_read::switch_cpus_1.data       573632                       # Number of bytes read from this memory
system.mem_ctrls1.bytes_read::total           2921280                       # Number of bytes read from this memory
system.mem_ctrls1.bytes_inst_read::cpu.inst          192                       # Number of instructions bytes read from this memory
system.mem_ctrls1.bytes_inst_read::switch_cpus.inst        48896                       # Number of instructions bytes read from this memory
system.mem_ctrls1.bytes_inst_read::switch_cpus_1.inst        18240                       # Number of instructions bytes read from this memory
system.mem_ctrls1.bytes_inst_read::total        67328                       # Number of instructions bytes read from this memory
system.mem_ctrls1.bytes_written::writebacks       144320                       # Number of bytes written to this memory
system.mem_ctrls1.bytes_written::total         144320                       # Number of bytes written to this memory
system.mem_ctrls1.num_reads::cpu.inst               3                       # Number of read requests responded to by this memory
system.mem_ctrls1.num_reads::cpu.data               2                       # Number of read requests responded to by this memory
system.mem_ctrls1.num_reads::switch_cpus.inst          764                       # Number of read requests responded to by this memory
system.mem_ctrls1.num_reads::switch_cpus.data        35628                       # Number of read requests responded to by this memory
system.mem_ctrls1.num_reads::switch_cpus_1.inst          285                       # Number of read requests responded to by this memory
system.mem_ctrls1.num_reads::switch_cpus_1.data         8963                       # Number of read requests responded to by this memory
system.mem_ctrls1.num_reads::total              45645                       # Number of read requests responded to by this memory
system.mem_ctrls1.num_writes::writebacks         2255                       # Number of write requests responded to by this memory
system.mem_ctrls1.num_writes::total              2255                       # Number of write requests responded to by this memory
system.mem_ctrls1.bw_read::cpu.inst               182                       # Total read bandwidth from this memory (bytes/s)
system.mem_ctrls1.bw_read::cpu.data               122                       # Total read bandwidth from this memory (bytes/s)
system.mem_ctrls1.bw_read::switch_cpus.inst        46457                       # Total read bandwidth from this memory (bytes/s)
system.mem_ctrls1.bw_read::switch_cpus.data      2166455                       # Total read bandwidth from this memory (bytes/s)
system.mem_ctrls1.bw_read::switch_cpus_1.inst        17330                       # Total read bandwidth from this memory (bytes/s)
system.mem_ctrls1.bw_read::switch_cpus_1.data       545019                       # Total read bandwidth from this memory (bytes/s)
system.mem_ctrls1.bw_read::total              2775566                       # Total read bandwidth from this memory (bytes/s)
system.mem_ctrls1.bw_inst_read::cpu.inst          182                       # Instruction read bandwidth from this memory (bytes/s)
system.mem_ctrls1.bw_inst_read::switch_cpus.inst        46457                       # Instruction read bandwidth from this memory (bytes/s)
system.mem_ctrls1.bw_inst_read::switch_cpus_1.inst        17330                       # Instruction read bandwidth from this memory (bytes/s)
system.mem_ctrls1.bw_inst_read::total           63970                       # Instruction read bandwidth from this memory (bytes/s)
system.mem_ctrls1.bw_write::writebacks         137121                       # Write bandwidth from this memory (bytes/s)
system.mem_ctrls1.bw_write::total              137121                       # Write bandwidth from this memory (bytes/s)
system.mem_ctrls1.bw_total::writebacks         137121                       # Total bandwidth to/from this memory (bytes/s)
system.mem_ctrls1.bw_total::cpu.inst              182                       # Total bandwidth to/from this memory (bytes/s)
system.mem_ctrls1.bw_total::cpu.data              122                       # Total bandwidth to/from this memory (bytes/s)
system.mem_ctrls1.bw_total::switch_cpus.inst        46457                       # Total bandwidth to/from this memory (bytes/s)
system.mem_ctrls1.bw_total::switch_cpus.data      2166455                       # Total bandwidth to/from this memory (bytes/s)
system.mem_ctrls1.bw_total::switch_cpus_1.inst        17330                       # Total bandwidth to/from this memory (bytes/s)
system.mem_ctrls1.bw_total::switch_cpus_1.data       545019                       # Total bandwidth to/from this memory (bytes/s)
system.mem_ctrls1.bw_total::total             2912687                       # Total bandwidth to/from this memory (bytes/s)
system.mem_ctrls1.readReqs                      45645                       # Number of read requests accepted
system.mem_ctrls1.writeReqs                      2255                       # Number of write requests accepted
system.mem_ctrls1.readBursts                    45645                       # Number of DRAM read bursts, including those serviced by the write queue
system.mem_ctrls1.writeBursts                    2255                       # Number of DRAM write bursts, including those merged in the write queue
system.mem_ctrls1.bytesReadDRAM               2868544                       # Total number of bytes read from DRAM
system.mem_ctrls1.bytesReadWrQ                  52736                       # Total number of bytes read from write queue
system.mem_ctrls1.bytesWritten                 142976                       # Total number of bytes written to DRAM
system.mem_ctrls1.bytesReadSys                2921280                       # Total read bytes from the system interface side
system.mem_ctrls1.bytesWrittenSys              144320                       # Total written bytes from the system interface side
system.mem_ctrls1.servicedByWrQ                   824                       # Number of DRAM read bursts serviced by the write queue
system.mem_ctrls1.mergedWrBursts                    2                       # Number of DRAM write bursts merged with an existing one
system.mem_ctrls1.neitherReadNorWriteReqs            0                       # Number of requests that are neither read nor write
system.mem_ctrls1.perBankRdBursts::0             2781                       # Per bank write bursts
system.mem_ctrls1.perBankRdBursts::1             2448                       # Per bank write bursts
system.mem_ctrls1.perBankRdBursts::2             2542                       # Per bank write bursts
system.mem_ctrls1.perBankRdBursts::3             2720                       # Per bank write bursts
system.mem_ctrls1.perBankRdBursts::4             2573                       # Per bank write bursts
system.mem_ctrls1.perBankRdBursts::5             2717                       # Per bank write bursts
system.mem_ctrls1.perBankRdBursts::6             2986                       # Per bank write bursts
system.mem_ctrls1.perBankRdBursts::7             2807                       # Per bank write bursts
system.mem_ctrls1.perBankRdBursts::8             2829                       # Per bank write bursts
system.mem_ctrls1.perBankRdBursts::9             2902                       # Per bank write bursts
system.mem_ctrls1.perBankRdBursts::10            3014                       # Per bank write bursts
system.mem_ctrls1.perBankRdBursts::11            2815                       # Per bank write bursts
system.mem_ctrls1.perBankRdBursts::12            2894                       # Per bank write bursts
system.mem_ctrls1.perBankRdBursts::13            2816                       # Per bank write bursts
system.mem_ctrls1.perBankRdBursts::14            3159                       # Per bank write bursts
system.mem_ctrls1.perBankRdBursts::15            2818                       # Per bank write bursts
system.mem_ctrls1.perBankWrBursts::0              127                       # Per bank write bursts
system.mem_ctrls1.perBankWrBursts::1               61                       # Per bank write bursts
system.mem_ctrls1.perBankWrBursts::2               95                       # Per bank write bursts
system.mem_ctrls1.perBankWrBursts::3               81                       # Per bank write bursts
system.mem_ctrls1.perBankWrBursts::4              132                       # Per bank write bursts
system.mem_ctrls1.perBankWrBursts::5               92                       # Per bank write bursts
system.mem_ctrls1.perBankWrBursts::6              192                       # Per bank write bursts
system.mem_ctrls1.perBankWrBursts::7              136                       # Per bank write bursts
system.mem_ctrls1.perBankWrBursts::8              172                       # Per bank write bursts
system.mem_ctrls1.perBankWrBursts::9               77                       # Per bank write bursts
system.mem_ctrls1.perBankWrBursts::10             141                       # Per bank write bursts
system.mem_ctrls1.perBankWrBursts::11             181                       # Per bank write bursts
system.mem_ctrls1.perBankWrBursts::12             165                       # Per bank write bursts
system.mem_ctrls1.perBankWrBursts::13             133                       # Per bank write bursts
system.mem_ctrls1.perBankWrBursts::14             307                       # Per bank write bursts
system.mem_ctrls1.perBankWrBursts::15             142                       # Per bank write bursts
system.mem_ctrls1.numRdRetry                        0                       # Number of times read queue was full causing retry
system.mem_ctrls1.numWrRetry                        0                       # Number of times write queue was full causing retry
system.mem_ctrls1.totGap                 1052489475648                       # Total gap between requests
system.mem_ctrls1.readPktSize::0                    0                       # Read request sizes (log2)
system.mem_ctrls1.readPktSize::1                    0                       # Read request sizes (log2)
system.mem_ctrls1.readPktSize::2                    0                       # Read request sizes (log2)
system.mem_ctrls1.readPktSize::3                    0                       # Read request sizes (log2)
system.mem_ctrls1.readPktSize::4                    0                       # Read request sizes (log2)
system.mem_ctrls1.readPktSize::5                    0                       # Read request sizes (log2)
system.mem_ctrls1.readPktSize::6                45645                       # Read request sizes (log2)
system.mem_ctrls1.writePktSize::0                   0                       # Write request sizes (log2)
system.mem_ctrls1.writePktSize::1                   0                       # Write request sizes (log2)
system.mem_ctrls1.writePktSize::2                   0                       # Write request sizes (log2)
system.mem_ctrls1.writePktSize::3                   0                       # Write request sizes (log2)
system.mem_ctrls1.writePktSize::4                   0                       # Write request sizes (log2)
system.mem_ctrls1.writePktSize::5                   0                       # Write request sizes (log2)
system.mem_ctrls1.writePktSize::6                2255                       # Write request sizes (log2)
system.mem_ctrls1.rdQLenPdf::0                  44488                       # What read queue length does an incoming req see
system.mem_ctrls1.rdQLenPdf::1                    328                       # What read queue length does an incoming req see
system.mem_ctrls1.rdQLenPdf::2                      5                       # What read queue length does an incoming req see
system.mem_ctrls1.rdQLenPdf::3                      0                       # What read queue length does an incoming req see
system.mem_ctrls1.rdQLenPdf::4                      0                       # What read queue length does an incoming req see
system.mem_ctrls1.rdQLenPdf::5                      0                       # What read queue length does an incoming req see
system.mem_ctrls1.rdQLenPdf::6                      0                       # What read queue length does an incoming req see
system.mem_ctrls1.rdQLenPdf::7                      0                       # What read queue length does an incoming req see
system.mem_ctrls1.rdQLenPdf::8                      0                       # What read queue length does an incoming req see
system.mem_ctrls1.rdQLenPdf::9                      0                       # What read queue length does an incoming req see
system.mem_ctrls1.rdQLenPdf::10                     0                       # What read queue length does an incoming req see
system.mem_ctrls1.rdQLenPdf::11                     0                       # What read queue length does an incoming req see
system.mem_ctrls1.rdQLenPdf::12                     0                       # What read queue length does an incoming req see
system.mem_ctrls1.rdQLenPdf::13                     0                       # What read queue length does an incoming req see
system.mem_ctrls1.rdQLenPdf::14                     0                       # What read queue length does an incoming req see
system.mem_ctrls1.rdQLenPdf::15                     0                       # What read queue length does an incoming req see
system.mem_ctrls1.rdQLenPdf::16                     0                       # What read queue length does an incoming req see
system.mem_ctrls1.rdQLenPdf::17                     0                       # What read queue length does an incoming req see
system.mem_ctrls1.rdQLenPdf::18                     0                       # What read queue length does an incoming req see
system.mem_ctrls1.rdQLenPdf::19                     0                       # What read queue length does an incoming req see
system.mem_ctrls1.rdQLenPdf::20                     0                       # What read queue length does an incoming req see
system.mem_ctrls1.rdQLenPdf::21                     0                       # What read queue length does an incoming req see
system.mem_ctrls1.rdQLenPdf::22                     0                       # What read queue length does an incoming req see
system.mem_ctrls1.rdQLenPdf::23                     0                       # What read queue length does an incoming req see
system.mem_ctrls1.rdQLenPdf::24                     0                       # What read queue length does an incoming req see
system.mem_ctrls1.rdQLenPdf::25                     0                       # What read queue length does an incoming req see
system.mem_ctrls1.rdQLenPdf::26                     0                       # What read queue length does an incoming req see
system.mem_ctrls1.rdQLenPdf::27                     0                       # What read queue length does an incoming req see
system.mem_ctrls1.rdQLenPdf::28                     0                       # What read queue length does an incoming req see
system.mem_ctrls1.rdQLenPdf::29                     0                       # What read queue length does an incoming req see
system.mem_ctrls1.rdQLenPdf::30                     0                       # What read queue length does an incoming req see
system.mem_ctrls1.rdQLenPdf::31                     0                       # What read queue length does an incoming req see
system.mem_ctrls1.wrQLenPdf::0                      2                       # What write queue length does an incoming req see
system.mem_ctrls1.wrQLenPdf::1                      2                       # What write queue length does an incoming req see
system.mem_ctrls1.wrQLenPdf::2                      2                       # What write queue length does an incoming req see
system.mem_ctrls1.wrQLenPdf::3                      2                       # What write queue length does an incoming req see
system.mem_ctrls1.wrQLenPdf::4                      2                       # What write queue length does an incoming req see
system.mem_ctrls1.wrQLenPdf::5                      2                       # What write queue length does an incoming req see
system.mem_ctrls1.wrQLenPdf::6                      2                       # What write queue length does an incoming req see
system.mem_ctrls1.wrQLenPdf::7                      2                       # What write queue length does an incoming req see
system.mem_ctrls1.wrQLenPdf::8                      2                       # What write queue length does an incoming req see
system.mem_ctrls1.wrQLenPdf::9                      2                       # What write queue length does an incoming req see
system.mem_ctrls1.wrQLenPdf::10                     2                       # What write queue length does an incoming req see
system.mem_ctrls1.wrQLenPdf::11                     2                       # What write queue length does an incoming req see
system.mem_ctrls1.wrQLenPdf::12                     2                       # What write queue length does an incoming req see
system.mem_ctrls1.wrQLenPdf::13                     2                       # What write queue length does an incoming req see
system.mem_ctrls1.wrQLenPdf::14                     2                       # What write queue length does an incoming req see
system.mem_ctrls1.wrQLenPdf::15                   114                       # What write queue length does an incoming req see
system.mem_ctrls1.wrQLenPdf::16                   114                       # What write queue length does an incoming req see
system.mem_ctrls1.wrQLenPdf::17                   124                       # What write queue length does an incoming req see
system.mem_ctrls1.wrQLenPdf::18                   126                       # What write queue length does an incoming req see
system.mem_ctrls1.wrQLenPdf::19                   125                       # What write queue length does an incoming req see
system.mem_ctrls1.wrQLenPdf::20                   125                       # What write queue length does an incoming req see
system.mem_ctrls1.wrQLenPdf::21                   125                       # What write queue length does an incoming req see
system.mem_ctrls1.wrQLenPdf::22                   125                       # What write queue length does an incoming req see
system.mem_ctrls1.wrQLenPdf::23                   125                       # What write queue length does an incoming req see
system.mem_ctrls1.wrQLenPdf::24                   124                       # What write queue length does an incoming req see
system.mem_ctrls1.wrQLenPdf::25                   125                       # What write queue length does an incoming req see
system.mem_ctrls1.wrQLenPdf::26                   124                       # What write queue length does an incoming req see
system.mem_ctrls1.wrQLenPdf::27                   124                       # What write queue length does an incoming req see
system.mem_ctrls1.wrQLenPdf::28                   124                       # What write queue length does an incoming req see
system.mem_ctrls1.wrQLenPdf::29                   124                       # What write queue length does an incoming req see
system.mem_ctrls1.wrQLenPdf::30                   124                       # What write queue length does an incoming req see
system.mem_ctrls1.wrQLenPdf::31                   124                       # What write queue length does an incoming req see
system.mem_ctrls1.wrQLenPdf::32                   124                       # What write queue length does an incoming req see
system.mem_ctrls1.wrQLenPdf::33                     3                       # What write queue length does an incoming req see
system.mem_ctrls1.wrQLenPdf::34                     0                       # What write queue length does an incoming req see
system.mem_ctrls1.wrQLenPdf::35                     0                       # What write queue length does an incoming req see
system.mem_ctrls1.wrQLenPdf::36                     0                       # What write queue length does an incoming req see
system.mem_ctrls1.wrQLenPdf::37                     0                       # What write queue length does an incoming req see
system.mem_ctrls1.wrQLenPdf::38                     0                       # What write queue length does an incoming req see
system.mem_ctrls1.wrQLenPdf::39                     0                       # What write queue length does an incoming req see
system.mem_ctrls1.wrQLenPdf::40                     0                       # What write queue length does an incoming req see
system.mem_ctrls1.wrQLenPdf::41                     0                       # What write queue length does an incoming req see
system.mem_ctrls1.wrQLenPdf::42                     0                       # What write queue length does an incoming req see
system.mem_ctrls1.wrQLenPdf::43                     0                       # What write queue length does an incoming req see
system.mem_ctrls1.wrQLenPdf::44                     0                       # What write queue length does an incoming req see
system.mem_ctrls1.wrQLenPdf::45                     0                       # What write queue length does an incoming req see
system.mem_ctrls1.wrQLenPdf::46                     0                       # What write queue length does an incoming req see
system.mem_ctrls1.wrQLenPdf::47                     0                       # What write queue length does an incoming req see
system.mem_ctrls1.wrQLenPdf::48                     0                       # What write queue length does an incoming req see
system.mem_ctrls1.wrQLenPdf::49                     0                       # What write queue length does an incoming req see
system.mem_ctrls1.wrQLenPdf::50                     0                       # What write queue length does an incoming req see
system.mem_ctrls1.wrQLenPdf::51                     0                       # What write queue length does an incoming req see
system.mem_ctrls1.wrQLenPdf::52                     0                       # What write queue length does an incoming req see
system.mem_ctrls1.wrQLenPdf::53                     0                       # What write queue length does an incoming req see
system.mem_ctrls1.wrQLenPdf::54                     0                       # What write queue length does an incoming req see
system.mem_ctrls1.wrQLenPdf::55                     0                       # What write queue length does an incoming req see
system.mem_ctrls1.wrQLenPdf::56                     0                       # What write queue length does an incoming req see
system.mem_ctrls1.wrQLenPdf::57                     0                       # What write queue length does an incoming req see
system.mem_ctrls1.wrQLenPdf::58                     0                       # What write queue length does an incoming req see
system.mem_ctrls1.wrQLenPdf::59                     0                       # What write queue length does an incoming req see
system.mem_ctrls1.wrQLenPdf::60                     0                       # What write queue length does an incoming req see
system.mem_ctrls1.wrQLenPdf::61                     0                       # What write queue length does an incoming req see
system.mem_ctrls1.wrQLenPdf::62                     0                       # What write queue length does an incoming req see
system.mem_ctrls1.wrQLenPdf::63                     0                       # What write queue length does an incoming req see
system.mem_ctrls1.bytesPerActivate::samples        17504                       # Bytes accessed per row activation
system.mem_ctrls1.bytesPerActivate::mean   172.047532                       # Bytes accessed per row activation
system.mem_ctrls1.bytesPerActivate::gmean   121.492021                       # Bytes accessed per row activation
system.mem_ctrls1.bytesPerActivate::stdev   188.994428                       # Bytes accessed per row activation
system.mem_ctrls1.bytesPerActivate::0-127         8483     48.46%     48.46% # Bytes accessed per row activation
system.mem_ctrls1.bytesPerActivate::128-255         5647     32.26%     80.72% # Bytes accessed per row activation
system.mem_ctrls1.bytesPerActivate::256-383         1302      7.44%     88.16% # Bytes accessed per row activation
system.mem_ctrls1.bytesPerActivate::384-511         1070      6.11%     94.28% # Bytes accessed per row activation
system.mem_ctrls1.bytesPerActivate::512-639          206      1.18%     95.45% # Bytes accessed per row activation
system.mem_ctrls1.bytesPerActivate::640-767          132      0.75%     96.21% # Bytes accessed per row activation
system.mem_ctrls1.bytesPerActivate::768-895          150      0.86%     97.06% # Bytes accessed per row activation
system.mem_ctrls1.bytesPerActivate::896-1023          226      1.29%     98.35% # Bytes accessed per row activation
system.mem_ctrls1.bytesPerActivate::1024-1151          288      1.65%    100.00% # Bytes accessed per row activation
system.mem_ctrls1.bytesPerActivate::total        17504                       # Bytes accessed per row activation
system.mem_ctrls1.rdPerTurnAround::samples          125                       # Reads before turning the bus around for writes
system.mem_ctrls1.rdPerTurnAround::mean    358.480000                       # Reads before turning the bus around for writes
system.mem_ctrls1.rdPerTurnAround::gmean    84.434814                       # Reads before turning the bus around for writes
system.mem_ctrls1.rdPerTurnAround::stdev  2624.673158                       # Reads before turning the bus around for writes
system.mem_ctrls1.rdPerTurnAround::0-1023          124     99.20%     99.20% # Reads before turning the bus around for writes
system.mem_ctrls1.rdPerTurnAround::28672-29695            1      0.80%    100.00% # Reads before turning the bus around for writes
system.mem_ctrls1.rdPerTurnAround::total          125                       # Reads before turning the bus around for writes
system.mem_ctrls1.wrPerTurnAround::samples          125                       # Writes before turning the bus around for reads
system.mem_ctrls1.wrPerTurnAround::mean     17.872000                       # Writes before turning the bus around for reads
system.mem_ctrls1.wrPerTurnAround::gmean    17.854063                       # Writes before turning the bus around for reads
system.mem_ctrls1.wrPerTurnAround::stdev     0.822820                       # Writes before turning the bus around for reads
system.mem_ctrls1.wrPerTurnAround::16              12      9.60%      9.60% # Writes before turning the bus around for reads
system.mem_ctrls1.wrPerTurnAround::18             110     88.00%     97.60% # Writes before turning the bus around for reads
system.mem_ctrls1.wrPerTurnAround::19               2      1.60%     99.20% # Writes before turning the bus around for reads
system.mem_ctrls1.wrPerTurnAround::24               1      0.80%    100.00% # Writes before turning the bus around for reads
system.mem_ctrls1.wrPerTurnAround::total          125                       # Writes before turning the bus around for reads
system.mem_ctrls1.totQLat                  3505945239                       # Total ticks spent queuing
system.mem_ctrls1.totMemAccLat             4346338989                       # Total ticks spent from burst creation until serviced by the DRAM
system.mem_ctrls1.totBusLat                 224105000                       # Total ticks spent in databus transfers
system.mem_ctrls1.avgQLat                    78221.04                       # Average queueing delay per DRAM burst
system.mem_ctrls1.avgBusLat                   5000.00                       # Average bus latency per DRAM burst
system.mem_ctrls1.avgMemAccLat               96971.04                       # Average memory access latency per DRAM burst
system.mem_ctrls1.avgRdBW                        2.73                       # Average DRAM read bandwidth in MiByte/s
system.mem_ctrls1.avgWrBW                        0.14                       # Average achieved write bandwidth in MiByte/s
system.mem_ctrls1.avgRdBWSys                     2.78                       # Average system read bandwidth in MiByte/s
system.mem_ctrls1.avgWrBWSys                     0.14                       # Average system write bandwidth in MiByte/s
system.mem_ctrls1.peakBW                     12800.00                       # Theoretical peak bandwidth in MiByte/s
system.mem_ctrls1.busUtil                        0.02                       # Data bus utilization in percentage
system.mem_ctrls1.busUtilRead                    0.02                       # Data bus utilization in percentage for reads
system.mem_ctrls1.busUtilWrite                   0.00                       # Data bus utilization in percentage for writes
system.mem_ctrls1.avgRdQLen                      1.00                       # Average read queue length when enqueuing
system.mem_ctrls1.avgWrQLen                     13.57                       # Average write queue length when enqueuing
system.mem_ctrls1.readRowHits                   29127                       # Number of row buffer hits during reads
system.mem_ctrls1.writeRowHits                    424                       # Number of row buffer hits during writes
system.mem_ctrls1.readRowHitRate                64.99                       # Row buffer hit rate for reads
system.mem_ctrls1.writeRowHitRate               18.82                       # Row buffer hit rate for writes
system.mem_ctrls1.avgGap                  21972640.41                       # Average gap between requests
system.mem_ctrls1.pageHitRate                   62.78                       # Row buffer hit rate, read and write combined
system.mem_ctrls1_0.actEnergy                56313180                       # Energy for activate commands per rank (pJ)
system.mem_ctrls1_0.preEnergy                29931165                       # Energy for precharge commands per rank (pJ)
system.mem_ctrls1_0.readEnergy              154038360                       # Energy for read commands per rank (pJ)
system.mem_ctrls1_0.writeEnergy               4781520                       # Energy for write commands per rank (pJ)
system.mem_ctrls1_0.refreshEnergy        5668824720.000001                       # Energy for refresh commands per rank (pJ)
system.mem_ctrls1_0.actBackEnergy          1585294260                       # Energy for active background per rank (pJ)
system.mem_ctrls1_0.preBackEnergy           344618400                       # Energy for precharge background per rank (pJ)
system.mem_ctrls1_0.actPowerDownEnergy    12464490390                       # Energy for active power-down per rank (pJ)
system.mem_ctrls1_0.prePowerDownEnergy     8331307200                       # Energy for precharge power-down per rank (pJ)
system.mem_ctrls1_0.selfRefreshEnergy    241185628755                       # Energy for self refresh per rank (pJ)
system.mem_ctrls1_0.totalEnergy          269828459460                       # Total energy per rank (pJ)
system.mem_ctrls1_0.averagePower           256.369338                       # Core power per rank (mW)
system.mem_ctrls1_0.totalIdleTime        1047976350129                       # Total Idle time Per DRAM Rank
system.mem_ctrls1_0.memoryStateTime::IDLE    703743597                       # Time in different power states
system.mem_ctrls1_0.memoryStateTime::REF   2413742000                       # Time in different power states
system.mem_ctrls1_0.memoryStateTime::SREF 999087234078                       # Time in different power states
system.mem_ctrls1_0.memoryStateTime::PRE_PDN  21696097048                       # Time in different power states
system.mem_ctrls1_0.memoryStateTime::ACT   1263698953                       # Time in different power states
system.mem_ctrls1_0.memoryStateTime::ACT_PDN  27334434821                       # Time in different power states
system.mem_ctrls1_1.actEnergy                68665380                       # Energy for activate commands per rank (pJ)
system.mem_ctrls1_1.preEnergy                36496515                       # Energy for precharge commands per rank (pJ)
system.mem_ctrls1_1.readEnergy              165983580                       # Energy for read commands per rank (pJ)
system.mem_ctrls1_1.writeEnergy               6879960                       # Energy for write commands per rank (pJ)
system.mem_ctrls1_1.refreshEnergy        6951578400.000002                       # Energy for refresh commands per rank (pJ)
system.mem_ctrls1_1.actBackEnergy          1866207930                       # Energy for active background per rank (pJ)
system.mem_ctrls1_1.preBackEnergy           420601440                       # Energy for precharge background per rank (pJ)
system.mem_ctrls1_1.actPowerDownEnergy    15207643320                       # Energy for active power-down per rank (pJ)
system.mem_ctrls1_1.prePowerDownEnergy    10491948000                       # Energy for precharge power-down per rank (pJ)
system.mem_ctrls1_1.selfRefreshEnergy    238485673845                       # Energy for self refresh per rank (pJ)
system.mem_ctrls1_1.totalEnergy          273704981460                       # Total energy per rank (pJ)
system.mem_ctrls1_1.averagePower           260.052498                       # Core power per rank (mW)
system.mem_ctrls1_1.totalIdleTime        1047298251789                       # Total Idle time Per DRAM Rank
system.mem_ctrls1_1.memoryStateTime::IDLE    855895683                       # Time in different power states
system.mem_ctrls1_1.memoryStateTime::REF   2959542000                       # Time in different power states
system.mem_ctrls1_1.memoryStateTime::SREF 986630821391                       # Time in different power states
system.mem_ctrls1_1.memoryStateTime::PRE_PDN  27322785660                       # Time in different power states
system.mem_ctrls1_1.memoryStateTime::ACT   1379633669                       # Time in different power states
system.mem_ctrls1_1.memoryStateTime::ACT_PDN  33350272094                       # Time in different power states
system.pwrStateResidencyTicks::UNDEFINED 176603783072364                       # Cumulative time (in ticks) in various power states
system.cpu.branchPred.lookups                       4                       # Number of BP lookups
system.cpu.branchPred.condPredicted                 2                       # Number of conditional branches predicted
system.cpu.branchPred.condIncorrect                 1                       # Number of conditional branches incorrect
system.cpu.branchPred.BTBLookups                    2                       # Number of BTB lookups
system.cpu.branchPred.BTBHits                       0                       # Number of BTB hits
system.cpu.branchPred.BTBCorrect                    0                       # Number of correct BTB predictions (this stat may not work properly.
system.cpu.branchPred.BTBHitPct              0.000000                       # BTB Hit Percentage
system.cpu.branchPred.usedRAS                       0                       # Number of times the RAS was used to get a target.
system.cpu.branchPred.RASInCorrect                  0                       # Number of incorrect RAS predictions.
system.cpu.branchPred.indirectLookups               0                       # Number of indirect predictor lookups.
system.cpu.branchPred.indirectHits                  0                       # Number of indirect target hits.
system.cpu.branchPred.indirectMisses                0                       # Number of indirect misses.
system.cpu.branchPredindirectMispredicted            0                       # Number of mispredicted indirect branches.
system.cpu_voltage_domain.voltage                   1                       # Voltage in Volts
system.cpu_clk_domain.clock                       333                       # Clock period in ticks
system.cpu.dtb.fetch_hits                           0                       # ITB hits
system.cpu.dtb.fetch_misses                         0                       # ITB misses
system.cpu.dtb.fetch_acv                            0                       # ITB acv
system.cpu.dtb.fetch_accesses                       0                       # ITB accesses
system.cpu.dtb.read_hits                           10                       # DTB read hits
system.cpu.dtb.read_misses                          0                       # DTB read misses
system.cpu.dtb.read_acv                             0                       # DTB read access violations
system.cpu.dtb.read_accesses                       10                       # DTB read accesses
system.cpu.dtb.write_hits                           0                       # DTB write hits
system.cpu.dtb.write_misses                         0                       # DTB write misses
system.cpu.dtb.write_acv                            0                       # DTB write access violations
system.cpu.dtb.write_accesses                       0                       # DTB write accesses
system.cpu.dtb.data_hits                           10                       # DTB hits
system.cpu.dtb.data_misses                          0                       # DTB misses
system.cpu.dtb.data_acv                             0                       # DTB access violations
system.cpu.dtb.data_accesses                       10                       # DTB accesses
system.cpu.itb.fetch_hits                           5                       # ITB hits
system.cpu.itb.fetch_misses                         0                       # ITB misses
system.cpu.itb.fetch_acv                            0                       # ITB acv
system.cpu.itb.fetch_accesses                       5                       # ITB accesses
system.cpu.itb.read_hits                            0                       # DTB read hits
system.cpu.itb.read_misses                          0                       # DTB read misses
system.cpu.itb.read_acv                             0                       # DTB read access violations
system.cpu.itb.read_accesses                        0                       # DTB read accesses
system.cpu.itb.write_hits                           0                       # DTB write hits
system.cpu.itb.write_misses                         0                       # DTB write misses
system.cpu.itb.write_acv                            0                       # DTB write access violations
system.cpu.itb.write_accesses                       0                       # DTB write accesses
system.cpu.itb.data_hits                            0                       # DTB hits
system.cpu.itb.data_misses                          0                       # DTB misses
system.cpu.itb.data_acv                             0                       # DTB access violations
system.cpu.itb.data_accesses                        0                       # DTB accesses
system.cpu.workload.num_syscalls                    0                       # Number of system calls
system.cpu.pwrStateResidencyTicks::ON    1052498950497                       # Cumulative time (in ticks) in various power states
system.cpu.numCycles                              696                       # number of cpu cycles simulated
system.cpu.numWorkItemsStarted                      0                       # number of work items this cpu started
system.cpu.numWorkItemsCompleted                    0                       # number of work items this cpu completed
system.cpu.fetch.icacheStallCycles                 49                       # Number of cycles fetch is stalled on an Icache miss
system.cpu.fetch.Insts                             32                       # Number of instructions fetch has processed
system.cpu.fetch.Branches                           4                       # Number of branches that fetch encountered
system.cpu.fetch.Cycles                             4                       # Number of cycles fetch has run and was not squashing or blocked
system.cpu.fetch.SquashCycles                       5                       # Number of cycles fetch has spent squashing
system.cpu.fetch.PendingDrainCycles                 7                       # Number of cycles fetch has spent waiting on pipes to drain
system.cpu.fetch.CacheLines                         5                       # Number of cache lines fetched
system.cpu.fetch.IcacheSquashes                     3                       # Number of outstanding Icache misses that were squashed
system.cpu.fetch.rateDist::samples                 62                       # Number of instructions fetched each cycle (Total)
system.cpu.fetch.rateDist::mean              0.516129                       # Number of instructions fetched each cycle (Total)
system.cpu.fetch.rateDist::stdev             1.981405                       # Number of instructions fetched each cycle (Total)
system.cpu.fetch.rateDist::underflows               0      0.00%      0.00% # Number of instructions fetched each cycle (Total)
system.cpu.fetch.rateDist::0                       58     93.55%     93.55% # Number of instructions fetched each cycle (Total)
system.cpu.fetch.rateDist::1                        0      0.00%     93.55% # Number of instructions fetched each cycle (Total)
system.cpu.fetch.rateDist::2                        0      0.00%     93.55% # Number of instructions fetched each cycle (Total)
system.cpu.fetch.rateDist::3                        0      0.00%     93.55% # Number of instructions fetched each cycle (Total)
system.cpu.fetch.rateDist::4                        0      0.00%     93.55% # Number of instructions fetched each cycle (Total)
system.cpu.fetch.rateDist::5                        0      0.00%     93.55% # Number of instructions fetched each cycle (Total)
system.cpu.fetch.rateDist::6                        0      0.00%     93.55% # Number of instructions fetched each cycle (Total)
system.cpu.fetch.rateDist::7                        0      0.00%     93.55% # Number of instructions fetched each cycle (Total)
system.cpu.fetch.rateDist::8                        4      6.45%    100.00% # Number of instructions fetched each cycle (Total)
system.cpu.fetch.rateDist::overflows                0      0.00%    100.00% # Number of instructions fetched each cycle (Total)
system.cpu.fetch.rateDist::min_value                0                       # Number of instructions fetched each cycle (Total)
system.cpu.fetch.rateDist::max_value                8                       # Number of instructions fetched each cycle (Total)
[...]
system.switch_cpus_1.iq.int_inst_queue_writes    563829688                       # Number of integer instruction queue writes
system.switch_cpus_1.iq.int_inst_queue_wakeup_accesses    518277295                       # Number of integer instruction queue wakeup accesses
system.switch_cpus_1.iq.fp_inst_queue_reads      5938844                       # Number of floating instruction queue reads
system.switch_cpus_1.iq.fp_inst_queue_writes      3074250                       # Number of floating instruction queue writes
system.switch_cpus_1.iq.fp_inst_queue_wakeup_accesses      2949163                       # Number of floating instruction queue wakeup accesses
system.switch_cpus_1.iq.int_alu_accesses    547571433                       # Number of integer alu accesses
system.switch_cpus_1.iq.fp_alu_accesses       2977635                       # Number of floating point alu accesses
system.switch_cpus_1.iew.lsq.thread0.forwLoads      6855780                       # Number of loads that had data forwarded from stores
system.switch_cpus_1.iew.lsq.thread0.invAddrLoads            0                       # Number of loads ignored due to an invalid address
system.switch_cpus_1.iew.lsq.thread0.squashedLoads      7323742                       # Number of loads squashed
system.switch_cpus_1.iew.lsq.thread0.ignoredResponses        20930                       # Number of memory responses ignored because the instruction is squashed
system.switch_cpus_1.iew.lsq.thread0.memOrderViolation        73758                       # Number of memory ordering violations
system.switch_cpus_1.iew.lsq.thread0.squashedStores      1327429                       # Number of stores squashed
system.switch_cpus_1.iew.lsq.thread0.invAddrSwpfs            0                       # Number of software prefetches ignored due to an invalid address
system.switch_cpus_1.iew.lsq.thread0.blockedLoads            0                       # Number of blocked loads due to partial load-store forwarding
system.switch_cpus_1.iew.lsq.thread0.rescheduledLoads         2619                       # Number of loads that were rescheduled
system.switch_cpus_1.iew.lsq.thread0.cacheBlocked      1023683                       # Number of times an access to memory failed due to the cache being blocked
system.switch_cpus_1.iew.iewIdleCycles              0                       # Number of cycles IEW is idle
system.switch_cpus_1.iew.iewSquashCycles       811250                       # Number of cycles IEW is squashing
system.switch_cpus_1.iew.iewBlockCycles       4225228                       # Number of cycles IEW is blocking
system.switch_cpus_1.iew.iewUnblockCycles      4568090                       # Number of cycles IEW is unblocking
system.switch_cpus_1.iew.iewDispatchedInsts    536541856                       # Number of instructions dispatched to IQ
system.switch_cpus_1.iew.iewDispSquashedInsts       102821                       # Number of squashed instructions skipped by dispatch
system.switch_cpus_1.iew.iewDispLoadInsts    175122692                       # Number of dispatched load instructions
system.switch_cpus_1.iew.iewDispStoreInsts     33943166                       # Number of dispatched store instructions
system.switch_cpus_1.iew.iewDispNonSpecInsts            0                       # Number of dispatched non-speculative instructions
system.switch_cpus_1.iew.iewIQFullEvents        23703                       # Number of times the IQ has become full, causing a stall
system.switch_cpus_1.iew.iewLSQFullEvents      4550342                       # Number of times the LSQ has become full, causing a stall
system.switch_cpus_1.iew.memOrderViolationEvents        73758                       # Number of memory order violations
system.switch_cpus_1.iew.predictedTakenIncorrect       580947                       # Number of branches that were predicted taken incorrectly
system.switch_cpus_1.iew.predictedNotTakenIncorrect       212788                       # Number of branches that were predicted not taken incorrectly
system.switch_cpus_1.iew.branchMispredicts       793735                       # Number of branch mispredicts detected at execute
system.switch_cpus_1.iew.iewExecutedInsts    523948810                       # Number of executed instructions
system.switch_cpus_1.iew.iewExecLoadInsts    174248063                       # Number of load instructions executed
system.switch_cpus_1.iew.iewExecSquashedInsts      1459785                       # Number of squashed instructions skipped in execute
system.switch_cpus_1.iew.exec_swp                   0                       # number of swp insts executed
system.switch_cpus_1.iew.exec_nop             3126541                       # number of nop insts executed
system.switch_cpus_1.iew.exec_refs          207337406                       # number of memory reference insts executed
system.switch_cpus_1.iew.exec_branches       39948205                       # Number of branches executed
system.switch_cpus_1.iew.exec_stores         33089343                       # Number of stores executed
system.switch_cpus_1.iew.exec_rate           2.792858                       # Inst execution rate
system.switch_cpus_1.iew.wb_sent            522019198                       # cumulative count of insts sent to commit
system.switch_cpus_1.iew.wb_count           521226458                       # cumulative count of insts written-back
system.switch_cpus_1.iew.wb_producers       338205996                       # num instructions producing a value
system.switch_cpus_1.iew.wb_consumers       414221067                       # num instructions consuming a value
system.switch_cpus_1.iew.wb_rate             2.778347                       # insts written-back per cycle
system.switch_cpus_1.iew.wb_fanout           0.816487                       # average fanout of values written-back
system.switch_cpus_1.commit.commitSquashedInsts     32469257                       # The number of squashed insts skipped by commit
system.switch_cpus_1.commit.branchMispredicts       680909                       # The number of times a branch was mispredicted
system.switch_cpus_1.commit.committed_per_cycle::samples    182292738                       # Number of insts commited each cycle
system.switch_cpus_1.commit.committed_per_cycle::mean     2.758709                       # Number of insts commited each cycle
system.switch_cpus_1.commit.committed_per_cycle::stdev     3.183378                       # Number of insts commited each cycle
system.switch_cpus_1.commit.committed_per_cycle::underflows            0      0.00%      0.00% # Number of insts commited each cycle
system.switch_cpus_1.commit.committed_per_cycle::0     76484817     41.96%     41.96% # Number of insts commited each cycle
system.switch_cpus_1.commit.committed_per_cycle::1     22508098     12.35%     54.30% # Number of insts commited each cycle
system.switch_cpus_1.commit.committed_per_cycle::2     11201252      6.14%     60.45% # Number of insts commited each cycle
system.switch_cpus_1.commit.committed_per_cycle::3     10067886      5.52%     65.97% # Number of insts commited each cycle
system.switch_cpus_1.commit.committed_per_cycle::4      6060121      3.32%     69.30% # Number of insts commited each cycle
system.switch_cpus_1.commit.committed_per_cycle::5      8738696      4.79%     74.09% # Number of insts commited each cycle
system.switch_cpus_1.commit.committed_per_cycle::6      4317196      2.37%     76.46% # Number of insts commited each cycle
system.switch_cpus_1.commit.committed_per_cycle::7      9376085      5.14%     81.60% # Number of insts commited each cycle
system.switch_cpus_1.commit.committed_per_cycle::8     33538587     18.40%    100.00% # Number of insts commited each cycle
system.switch_cpus_1.commit.committed_per_cycle::overflows            0      0.00%    100.00% # Number of insts commited each cycle
system.switch_cpus_1.commit.committed_per_cycle::min_value            0                       # Number of insts commited each cycle
system.switch_cpus_1.commit.committed_per_cycle::max_value            8                       # Number of insts commited each cycle
system.switch_cpus_1.commit.committed_per_cycle::total    182292738                       # Number of insts commited each cycle
system.switch_cpus_1.commit.committedInsts    502892691                       # Number of instructions committed
system.switch_cpus_1.commit.committedOps    502892691                       # Number of ops (including micro ops) committed
system.switch_cpus_1.commit.swp_count               0                       # Number of s/w prefetches committed
system.switch_cpus_1.commit.refs            200414679                       # Number of memory references committed
system.switch_cpus_1.commit.loads           167798943                       # Number of loads committed
system.switch_cpus_1.commit.membars                 0                       # Number of memory barriers committed
system.switch_cpus_1.commit.branches         37436953                       # Number of branches committed
system.switch_cpus_1.commit.fp_insts          2883784                       # Number of committed floating point instructions.
system.switch_cpus_1.commit.int_insts       496518886                       # Number of committed integer instructions.
system.switch_cpus_1.commit.function_calls      4873554                       # Number of function calls committed.
system.switch_cpus_1.commit.op_class_0::No_OpClass      3237686      0.64%      0.64% # Class of committed instruction
system.switch_cpus_1.commit.op_class_0::IntAlu    295107947     58.68%     59.33% # Class of committed instruction
system.switch_cpus_1.commit.op_class_0::IntMult      2397783      0.48%     59.80% # Class of committed instruction
system.switch_cpus_1.commit.op_class_0::IntDiv            0      0.00%     59.80% # Class of committed instruction
system.switch_cpus_1.commit.op_class_0::FloatAdd       978297      0.19%     60.00% # Class of committed instruction
system.switch_cpus_1.commit.op_class_0::FloatCmp        23447      0.00%     60.00% # Class of committed instruction
system.switch_cpus_1.commit.op_class_0::FloatCvt       543976      0.11%     60.11% # Class of committed instruction
system.switch_cpus_1.commit.op_class_0::FloatMult        16359      0.00%     60.11% # Class of committed instruction
system.switch_cpus_1.commit.op_class_0::FloatMultAcc            0      0.00%     60.11% # Class of committed instruction
system.switch_cpus_1.commit.op_class_0::FloatDiv       172508      0.03%     60.15% # Class of committed instruction
system.switch_cpus_1.commit.op_class_0::FloatMisc            0      0.00%     60.15% # Class of committed instruction
system.switch_cpus_1.commit.op_class_0::FloatSqrt            9      0.00%     60.15% # Class of committed instruction
system.switch_cpus_1.commit.op_class_0::SimdAdd            0      0.00%     60.15% # Class of committed instruction
system.switch_cpus_1.commit.op_class_0::SimdAddAcc            0      0.00%     60.15% # Class of committed instruction
system.switch_cpus_1.commit.op_class_0::SimdAlu            0      0.00%     60.15% # Class of committed instruction
system.switch_cpus_1.commit.op_class_0::SimdCmp            0      0.00%     60.15% # Class of committed instruction
system.switch_cpus_1.commit.op_class_0::SimdCvt            0      0.00%     60.15% # Class of committed instruction
system.switch_cpus_1.commit.op_class_0::SimdMisc            0      0.00%     60.15% # Class of committed instruction
system.switch_cpus_1.commit.op_class_0::SimdMult            0      0.00%     60.15% # Class of committed instruction
system.switch_cpus_1.commit.op_class_0::SimdMultAcc            0      0.00%     60.15% # Class of committed instruction
system.switch_cpus_1.commit.op_class_0::SimdShift            0      0.00%     60.15% # Class of committed instruction
system.switch_cpus_1.commit.op_class_0::SimdShiftAcc            0      0.00%     60.15% # Class of committed instruction
system.switch_cpus_1.commit.op_class_0::SimdSqrt            0      0.00%     60.15% # Class of committed instruction
system.switch_cpus_1.commit.op_class_0::SimdFloatAdd            0      0.00%     60.15% # Class of committed instruction
system.switch_cpus_1.commit.op_class_0::SimdFloatAlu            0      0.00%     60.15% # Class of committed instruction
system.switch_cpus_1.commit.op_class_0::SimdFloatCmp            0      0.00%     60.15% # Class of committed instruction
system.switch_cpus_1.commit.op_class_0::SimdFloatCvt            0      0.00%     60.15% # Class of committed instruction
system.switch_cpus_1.commit.op_class_0::SimdFloatDiv            0      0.00%     60.15% # Class of committed instruction
system.switch_cpus_1.commit.op_class_0::SimdFloatMisc            0      0.00%     60.15% # Class of committed instruction
system.switch_cpus_1.commit.op_class_0::SimdFloatMult            0      0.00%     60.15% # Class of committed instruction
system.switch_cpus_1.commit.op_class_0::SimdFloatMultAcc            0      0.00%     60.15% # Class of committed instruction
system.switch_cpus_1.commit.op_class_0::SimdFloatSqrt            0      0.00%     60.15% # Class of committed instruction
system.switch_cpus_1.commit.op_class_0::MemRead    167210258     33.25%     93.40% # Class of committed instruction
system.switch_cpus_1.commit.op_class_0::MemWrite     32055233      6.37%     99.77% # Class of committed instruction
system.switch_cpus_1.commit.op_class_0::FloatMemRead       588685      0.12%     99.89% # Class of committed instruction
system.switch_cpus_1.commit.op_class_0::FloatMemWrite       560503      0.11%    100.00% # Class of committed instruction
system.switch_cpus_1.commit.op_class_0::IprAccess            0      0.00%    100.00% # Class of committed instruction
system.switch_cpus_1.commit.op_class_0::InstPrefetch            0      0.00%    100.00% # Class of committed instruction
system.switch_cpus_1.commit.op_class_0::total    502892691                       # Class of committed instruction
system.switch_cpus_1.commit.bw_lim_events     33538587                       # number cycles where commit BW limit reached
system.switch_cpus_1.rob.rob_reads          683266614                       # The number of ROB reads
system.switch_cpus_1.rob.rob_writes        1075179822                       # The number of ROB writes
system.switch_cpus_1.timesIdled                 34269                       # Number of times that the entire CPU went into an idle state and unscheduled itself
system.switch_cpus_1.idleCycles                858315                       # Total number of cycles that the CPU has spent unscheduled due to idling
system.switch_cpus_1.committedInsts         500000003                       # Number of Instructions Simulated
system.switch_cpus_1.committedOps           500000003                       # Number of Ops (including micro ops) Simulated
system.switch_cpus_1.cpi                     0.375206                       # CPI: Cycles Per Instruction
system.switch_cpus_1.cpi_total               0.375206                       # CPI: Total CPI of All Threads
system.switch_cpus_1.ipc                     2.665202                       # IPC: Instructions Per Cycle
system.switch_cpus_1.ipc_total               2.665202                       # IPC: Total IPC of All Threads
system.switch_cpus_1.int_regfile_reads      767304783                       # number of integer regfile reads
system.switch_cpus_1.int_regfile_writes     451206835                       # number of integer regfile writes
system.switch_cpus_1.fp_regfile_reads         2110475                       # number of floating regfile reads
system.switch_cpus_1.fp_regfile_writes        1980732                       # number of floating regfile writes
system.switch_cpus_1.misc_regfile_reads        355426                       # number of misc regfile reads
system.switch_cpus_1.misc_regfile_writes       172499                       # number of misc regfile writes
system.tol3bus.snoop_filter.tot_requests      4081282                       # Total number of requests made to the snoop filter.
system.tol3bus.snoop_filter.hit_single_requests      2038373                       # Number of requests hitting in the snoop filter with a single holder of the requested data.
system.tol3bus.snoop_filter.hit_multi_requests            0                       # Number of requests hitting in the snoop filter with multiple (>1) holders of the requested data.
system.tol3bus.snoop_filter.tot_snoops            229                       # Total number of snoops made to the snoop filter.
system.tol3bus.snoop_filter.hit_single_snoops          229                       # Number of snoops hitting in the snoop filter with a single holder of the requested data.
system.tol3bus.snoop_filter.hit_multi_snoops            0                       # Number of snoops hitting in the snoop filter with multiple (>1) holders of the requested data.
system.tol3bus.pwrStateResidencyTicks::UNDEFINED 176603783072364                       # Cumulative time (in ticks) in various power states
system.tol3bus.trans_dist::ReadResp           1211927                       # Transaction distribution
system.tol3bus.trans_dist::WritebackDirty      1580463                       # Transaction distribution
system.tol3bus.trans_dist::CleanEvict          483642                       # Transaction distribution
system.tol3bus.trans_dist::UpgradeReq               5                       # Transaction distribution
system.tol3bus.trans_dist::UpgradeResp              5                       # Transaction distribution
system.tol3bus.trans_dist::ReadExReq           830982                       # Transaction distribution
system.tol3bus.trans_dist::ReadExResp          830982                       # Transaction distribution
system.tol3bus.trans_dist::ReadSharedReq      1211927                       # Transaction distribution
system.tol3bus.pkt_count_system.cpu.l2.mem_side::system.l3.cpu_side      6124196                       # Packet count per connected master and slave (bytes)
system.tol3bus.pkt_size_system.cpu.l2.mem_side::system.l3.cpu_side    231606016                       # Cumulative packet size per connected master and slave (bytes)
system.tol3bus.snoops                           25737                       # Total snoops (count)
system.tol3bus.snoopTraffic                    289792                       # Total snoop traffic (bytes)
system.tol3bus.snoop_fanout::samples          2068651                       # Request fanout histogram
system.tol3bus.snoop_fanout::mean            0.000111                       # Request fanout histogram
system.tol3bus.snoop_fanout::stdev           0.010521                       # Request fanout histogram
system.tol3bus.snoop_fanout::underflows             0      0.00%      0.00% # Request fanout histogram
system.tol3bus.snoop_fanout::0                2068422     99.99%     99.99% # Request fanout histogram
system.tol3bus.snoop_fanout::1                    229      0.01%    100.00% # Request fanout histogram
system.tol3bus.snoop_fanout::overflows              0      0.00%    100.00% # Request fanout histogram
system.tol3bus.snoop_fanout::min_value              0                       # Request fanout histogram
system.tol3bus.snoop_fanout::max_value              1                       # Request fanout histogram
system.tol3bus.snoop_fanout::total            2068651                       # Request fanout histogram
system.tol3bus.reqLayer0.occupancy         1883853261                       # Layer occupancy (ticks)
system.tol3bus.reqLayer0.utilization              0.2                       # Layer utilization (%)
system.tol3bus.respLayer0.occupancy        1360579059                       # Layer occupancy (ticks)
system.tol3bus.respLayer0.utilization             0.1                       # Layer utilization (%)

---------- End Simulation Statistics   ----------
