
---------- Begin Simulation Statistics ----------
sim_seconds                                  1.852280                       # Number of seconds simulated
sim_ticks                                1852280433432                       # Number of ticks simulated
final_tick                               734804720987418                       # Number of ticks from beginning of simulation (restored from checkpoints and never reset)
sim_freq                                 1000000000000                       # Frequency of simulated ticks
host_inst_rate                                 403387                       # Simulator instruction rate (inst/s)
host_op_rate                                   403387                       # Simulator op (including micro ops) rate (op/s)
host_tick_rate                              622654812                       # Simulator tick rate (ticks/s)
host_mem_usage                                2391064                       # Number of bytes of host memory used
host_seconds                                  2974.81                       # Real time elapsed on the host
sim_insts                                  1200000012                       # Number of instructions simulated
sim_ops                                    1200000012                       # Number of ops (including micro ops) simulated
system.voltage_domain.voltage                       1                       # Voltage in Volts
system.clk_domain.clock                          1000                       # Clock period in ticks
system.mem_ctrls0.pwrStateResidencyTicks::UNDEFINED 734804720987418                       # Cumulative time (in ticks) in various power states
system.mem_ctrls0.bytes_read::cpu.inst            128                       # Number of bytes read from this memory
system.mem_ctrls0.bytes_read::cpu.data            128                       # Number of bytes read from this memory
system.mem_ctrls0.bytes_read::switch_cpus.inst       190848                       # Number of bytes read from this memory
system.mem_ctrls0.bytes_read::switch_cpus.data     75997120                       # Number of bytes read from this memory
system.mem_ctrls0.bytes_read::switch_cpus_1.inst        46848                       # Number of bytes read from this memory
system.mem_ctrls0.bytes_read::switch_cpus_1.data     20306496                       # Number of bytes read from this memory
system.mem_ctrls0.bytes_read::total          96541568                       # Number of bytes read from this memory
system.mem_ctrls0.bytes_inst_read::cpu.inst          128                       # Number of instructions bytes read from this memory
system.mem_ctrls0.bytes_inst_read::switch_cpus.inst       190848                       # Number of instructions bytes read from this memory
system.mem_ctrls0.bytes_inst_read::switch_cpus_1.inst        46848                       # Number of instructions bytes read from this memory
system.mem_ctrls0.bytes_inst_read::total       237824                       # Number of instructions bytes read from this memory
system.mem_ctrls0.bytes_written::writebacks      5316160                       # Number of bytes written to this memory
system.mem_ctrls0.bytes_written::total        5316160                       # Number of bytes written to this memory
system.mem_ctrls0.num_reads::cpu.inst               2                       # Number of read requests responded to by this memory
system.mem_ctrls0.num_reads::cpu.data               2                       # Number of read requests responded to by this memory
system.mem_ctrls0.num_reads::switch_cpus.inst         2982                       # Number of read requests responded to by this memory
system.mem_ctrls0.num_reads::switch_cpus.data      1187455                       # Number of read requests responded to by this memory
system.mem_ctrls0.num_reads::switch_cpus_1.inst          732                       # Number of read requests responded to by this memory
system.mem_ctrls0.num_reads::switch_cpus_1.data       317289                       # Number of read requests responded to by this memory
system.mem_ctrls0.num_reads::total            1508462                       # Number of read requests responded to by this memory
system.mem_ctrls0.num_writes::writebacks        83065                       # Number of write requests responded to by this memory
system.mem_ctrls0.num_writes::total             83065                       # Number of write requests responded to by this memory
system.mem_ctrls0.bw_read::cpu.inst                69                       # Total read bandwidth from this memory (bytes/s)
system.mem_ctrls0.bw_read::cpu.data                69                       # Total read bandwidth from this memory (bytes/s)
system.mem_ctrls0.bw_read::switch_cpus.inst       103034                       # Total read bandwidth from this memory (bytes/s)
system.mem_ctrls0.bw_read::switch_cpus.data     41028949                       # Total read bandwidth from this memory (bytes/s)
system.mem_ctrls0.bw_read::switch_cpus_1.inst        25292                       # Total read bandwidth from this memory (bytes/s)
system.mem_ctrls0.bw_read::switch_cpus_1.data     10962971                       # Total read bandwidth from this memory (bytes/s)
system.mem_ctrls0.bw_read::total             52120384                       # Total read bandwidth from this memory (bytes/s)
system.mem_ctrls0.bw_inst_read::cpu.inst           69                       # Instruction read bandwidth from this memory (bytes/s)
system.mem_ctrls0.bw_inst_read::switch_cpus.inst       103034                       # Instruction read bandwidth from this memory (bytes/s)
system.mem_ctrls0.bw_inst_read::switch_cpus_1.inst        25292                       # Instruction read bandwidth from this memory (bytes/s)
system.mem_ctrls0.bw_inst_read::total          128395                       # Instruction read bandwidth from this memory (bytes/s)
system.mem_ctrls0.bw_write::writebacks        2870062                       # Write bandwidth from this memory (bytes/s)
system.mem_ctrls0.bw_write::total             2870062                       # Write bandwidth from this memory (bytes/s)
system.mem_ctrls0.bw_total::writebacks        2870062                       # Total bandwidth to/from this memory (bytes/s)
system.mem_ctrls0.bw_total::cpu.inst               69                       # Total bandwidth to/from this memory (bytes/s)
system.mem_ctrls0.bw_total::cpu.data               69                       # Total bandwidth to/from this memory (bytes/s)
system.mem_ctrls0.bw_total::switch_cpus.inst       103034                       # Total bandwidth to/from this memory (bytes/s)
system.mem_ctrls0.bw_total::switch_cpus.data     41028949                       # Total bandwidth to/from this memory (bytes/s)
system.mem_ctrls0.bw_total::switch_cpus_1.inst        25292                       # Total bandwidth to/from this memory (bytes/s)
system.mem_ctrls0.bw_total::switch_cpus_1.data     10962971                       # Total bandwidth to/from this memory (bytes/s)
system.mem_ctrls0.bw_total::total            54990446                       # Total bandwidth to/from this memory (bytes/s)
system.mem_ctrls0.readReqs                    1508462                       # Number of read requests accepted
system.mem_ctrls0.writeReqs                     83065                       # Number of write requests accepted
system.mem_ctrls0.readBursts                  1508462                       # Number of DRAM read bursts, including those serviced by the write queue
system.mem_ctrls0.writeBursts                   83065                       # Number of DRAM write bursts, including those merged in the write queue
system.mem_ctrls0.bytesReadDRAM              96024128                       # Total number of bytes read from DRAM
system.mem_ctrls0.bytesReadWrQ                 517440                       # Total number of bytes read from write queue
system.mem_ctrls0.bytesWritten                5296192                       # Total number of bytes written to DRAM
system.mem_ctrls0.bytesReadSys               96541568                       # Total read bytes from the system interface side
system.mem_ctrls0.bytesWrittenSys             5316160                       # Total written bytes from the system interface side
system.mem_ctrls0.servicedByWrQ                  8085                       # Number of DRAM read bursts serviced by the write queue
system.mem_ctrls0.mergedWrBursts                  282                       # Number of DRAM write bursts merged with an existing one
system.mem_ctrls0.neitherReadNorWriteReqs            0                       # Number of requests that are neither read nor write
system.mem_ctrls0.perBankRdBursts::0           127214                       # Per bank write bursts
system.mem_ctrls0.perBankRdBursts::1           143635                       # Per bank write bursts
system.mem_ctrls0.perBankRdBursts::2           114722                       # Per bank write bursts
system.mem_ctrls0.perBankRdBursts::3            66952                       # Per bank write bursts
system.mem_ctrls0.perBankRdBursts::4            80381                       # Per bank write bursts
system.mem_ctrls0.perBankRdBursts::5            64238                       # Per bank write bursts
system.mem_ctrls0.perBankRdBursts::6            54968                       # Per bank write bursts
system.mem_ctrls0.perBankRdBursts::7           127821                       # Per bank write bursts
system.mem_ctrls0.perBankRdBursts::8           118612                       # Per bank write bursts
system.mem_ctrls0.perBankRdBursts::9           122967                       # Per bank write bursts
system.mem_ctrls0.perBankRdBursts::10           97334                       # Per bank write bursts
system.mem_ctrls0.perBankRdBursts::11           57669                       # Per bank write bursts
system.mem_ctrls0.perBankRdBursts::12           77702                       # Per bank write bursts
system.mem_ctrls0.perBankRdBursts::13           68864                       # Per bank write bursts
system.mem_ctrls0.perBankRdBursts::14           52847                       # Per bank write bursts
system.mem_ctrls0.perBankRdBursts::15          124451                       # Per bank write bursts
system.mem_ctrls0.perBankWrBursts::0             8726                       # Per bank write bursts
system.mem_ctrls0.perBankWrBursts::1             9386                       # Per bank write bursts
system.mem_ctrls0.perBankWrBursts::2             8354                       # Per bank write bursts
system.mem_ctrls0.perBankWrBursts::3             4040                       # Per bank write bursts
system.mem_ctrls0.perBankWrBursts::4             2576                       # Per bank write bursts
system.mem_ctrls0.perBankWrBursts::5             2870                       # Per bank write bursts
system.mem_ctrls0.perBankWrBursts::6             1575                       # Per bank write bursts
system.mem_ctrls0.perBankWrBursts::7             2314                       # Per bank write bursts
system.mem_ctrls0.perBankWrBursts::8             1701                       # Per bank write bursts
system.mem_ctrls0.perBankWrBursts::9             2614                       # Per bank write bursts
system.mem_ctrls0.perBankWrBursts::10            7393                       # Per bank write bursts
system.mem_ctrls0.perBankWrBursts::11            4715                       # Per bank write bursts
system.mem_ctrls0.perBankWrBursts::12            6986                       # Per bank write bursts
system.mem_ctrls0.perBankWrBursts::13            6323                       # Per bank write bursts
system.mem_ctrls0.perBankWrBursts::14            4583                       # Per bank write bursts
system.mem_ctrls0.perBankWrBursts::15            8597                       # Per bank write bursts
system.mem_ctrls0.numRdRetry                        0                       # Number of times read queue was full causing retry
system.mem_ctrls0.numWrRetry                        0                       # Number of times write queue was full causing retry
system.mem_ctrls0.totGap                 1852271065029                       # Total gap between requests
system.mem_ctrls0.readPktSize::0                    0                       # Read request sizes (log2)
system.mem_ctrls0.readPktSize::1                    0                       # Read request sizes (log2)
system.mem_ctrls0.readPktSize::2                    0                       # Read request sizes (log2)
system.mem_ctrls0.readPktSize::3                    0                       # Read request sizes (log2)
system.mem_ctrls0.readPktSize::4                    0                       # Read request sizes (log2)
system.mem_ctrls0.readPktSize::5                    0                       # Read request sizes (log2)
system.mem_ctrls0.readPktSize::6              1508462                       # Read request sizes (log2)
system.mem_ctrls0.writePktSize::0                   0                       # Write request sizes (log2)
system.mem_ctrls0.writePktSize::1                   0                       # Write request sizes (log2)
system.mem_ctrls0.writePktSize::2                   0                       # Write request sizes (log2)
system.mem_ctrls0.writePktSize::3                   0                       # Write request sizes (log2)
system.mem_ctrls0.writePktSize::4                   0                       # Write request sizes (log2)
system.mem_ctrls0.writePktSize::5                   0                       # Write request sizes (log2)
system.mem_ctrls0.writePktSize::6               83065                       # Write request sizes (log2)
system.mem_ctrls0.rdQLenPdf::0                1426388                       # What read queue length does an incoming req see
system.mem_ctrls0.rdQLenPdf::1                  66119                       # What read queue length does an incoming req see
system.mem_ctrls0.rdQLenPdf::2                   7284                       # What read queue length does an incoming req see
system.mem_ctrls0.rdQLenPdf::3                    586                       # What read queue length does an incoming req see
system.mem_ctrls0.rdQLenPdf::4                      0                       # What read queue length does an incoming req see
system.mem_ctrls0.rdQLenPdf::5                      0                       # What read queue length does an incoming req see
system.mem_ctrls0.rdQLenPdf::6                      0                       # What read queue length does an incoming req see
system.mem_ctrls0.rdQLenPdf::7                      0                       # What read queue length does an incoming req see
system.mem_ctrls0.rdQLenPdf::8                      0                       # What read queue length does an incoming req see
system.mem_ctrls0.rdQLenPdf::9                      0                       # What read queue length does an incoming req see
system.mem_ctrls0.rdQLenPdf::10                     0                       # What read queue length does an incoming req see
system.mem_ctrls0.rdQLenPdf::11                     0                       # What read queue length does an incoming req see
system.mem_ctrls0.rdQLenPdf::12                     0                       # What read queue length does an incoming req see
system.mem_ctrls0.rdQLenPdf::13                     0                       # What read queue length does an incoming req see
system.mem_ctrls0.rdQLenPdf::14                     0                       # What read queue length does an incoming req see
system.mem_ctrls0.rdQLenPdf::15                     0                       # What read queue length does an incoming req see
system.mem_ctrls0.rdQLenPdf::16                     0                       # What read queue length does an incoming req see
system.mem_ctrls0.rdQLenPdf::17                     0                       # What read queue length does an incoming req see
system.mem_ctrls0.rdQLenPdf::18                     0                       # What read queue length does an incoming req see
system.mem_ctrls0.rdQLenPdf::19                     0                       # What read queue length does an incoming req see
system.mem_ctrls0.rdQLenPdf::20                     0                       # What read queue length does an incoming req see
system.mem_ctrls0.rdQLenPdf::21                     0                       # What read queue length does an incoming req see
system.mem_ctrls0.rdQLenPdf::22                     0                       # What read queue length does an incoming req see
system.mem_ctrls0.rdQLenPdf::23                     0                       # What read queue length does an incoming req see
system.mem_ctrls0.rdQLenPdf::24                     0                       # What read queue length does an incoming req see
system.mem_ctrls0.rdQLenPdf::25                     0                       # What read queue length does an incoming req see
system.mem_ctrls0.rdQLenPdf::26                     0                       # What read queue length does an incoming req see
system.mem_ctrls0.rdQLenPdf::27                     0                       # What read queue length does an incoming req see
system.mem_ctrls0.rdQLenPdf::28                     0                       # What read queue length does an incoming req see
system.mem_ctrls0.rdQLenPdf::29                     0                       # What read queue length does an incoming req see
system.mem_ctrls0.rdQLenPdf::30                     0                       # What read queue length does an incoming req see
system.mem_ctrls0.rdQLenPdf::31                     0                       # What read queue length does an incoming req see
system.mem_ctrls0.wrQLenPdf::0                      2                       # What write queue length does an incoming req see
system.mem_ctrls0.wrQLenPdf::1                      2                       # What write queue length does an incoming req see
system.mem_ctrls0.wrQLenPdf::2                      2                       # What write queue length does an incoming req see
system.mem_ctrls0.wrQLenPdf::3                      2                       # What write queue length does an incoming req see
system.mem_ctrls0.wrQLenPdf::4                      2                       # What write queue length does an incoming req see
system.mem_ctrls0.wrQLenPdf::5                      2                       # What write queue length does an incoming req see
system.mem_ctrls0.wrQLenPdf::6                      2                       # What write queue length does an incoming req see
system.mem_ctrls0.wrQLenPdf::7                      2                       # What write queue length does an incoming req see
system.mem_ctrls0.wrQLenPdf::8                      2                       # What write queue length does an incoming req see
system.mem_ctrls0.wrQLenPdf::9                      2                       # What write queue length does an incoming req see
system.mem_ctrls0.wrQLenPdf::10                     2                       # What write queue length does an incoming req see
system.mem_ctrls0.wrQLenPdf::11                     2                       # What write queue length does an incoming req see
system.mem_ctrls0.wrQLenPdf::12                     2                       # What write queue length does an incoming req see
system.mem_ctrls0.wrQLenPdf::13                     2                       # What write queue length does an incoming req see
system.mem_ctrls0.wrQLenPdf::14                     2                       # What write queue length does an incoming req see
system.mem_ctrls0.wrQLenPdf::15                  4275                       # What write queue length does an incoming req see
system.mem_ctrls0.wrQLenPdf::16                  4316                       # What write queue length does an incoming req see
system.mem_ctrls0.wrQLenPdf::17                  4623                       # What write queue length does an incoming req see
system.mem_ctrls0.wrQLenPdf::18                  4638                       # What write queue length does an incoming req see
system.mem_ctrls0.wrQLenPdf::19                  4635                       # What write queue length does an incoming req see
system.mem_ctrls0.wrQLenPdf::20                  4636                       # What write queue length does an incoming req see
system.mem_ctrls0.wrQLenPdf::21                  4636                       # What write queue length does an incoming req see
system.mem_ctrls0.wrQLenPdf::22                  4639                       # What write queue length does an incoming req see
system.mem_ctrls0.wrQLenPdf::23                  4635                       # What write queue length does an incoming req see
system.mem_ctrls0.wrQLenPdf::24                  4635                       # What write queue length does an incoming req see
system.mem_ctrls0.wrQLenPdf::25                  4636                       # What write queue length does an incoming req see
system.mem_ctrls0.wrQLenPdf::26                  4632                       # What write queue length does an incoming req see
system.mem_ctrls0.wrQLenPdf::27                  4631                       # What write queue length does an incoming req see
system.mem_ctrls0.wrQLenPdf::28                  4634                       # What write queue length does an incoming req see
system.mem_ctrls0.wrQLenPdf::29                  4634                       # What write queue length does an incoming req see
system.mem_ctrls0.wrQLenPdf::30                  4655                       # What write queue length does an incoming req see
system.mem_ctrls0.wrQLenPdf::31                  4630                       # What write queue length does an incoming req see
system.mem_ctrls0.wrQLenPdf::32                  4630                       # What write queue length does an incoming req see
system.mem_ctrls0.wrQLenPdf::33                     3                       # What write queue length does an incoming req see
system.mem_ctrls0.wrQLenPdf::34                     0                       # What write queue length does an incoming req see
system.mem_ctrls0.wrQLenPdf::35                     0                       # What write queue length does an incoming req see
system.mem_ctrls0.wrQLenPdf::36                     0                       # What write queue length does an incoming req see
system.mem_ctrls0.wrQLenPdf::37                     0                       # What write queue length does an incoming req see
system.mem_ctrls0.wrQLenPdf::38                     0                       # What write queue length does an incoming req see
system.mem_ctrls0.wrQLenPdf::39                     0                       # What write queue length does an incoming req see
system.mem_ctrls0.wrQLenPdf::40                     0                       # What write queue length does an incoming req see
system.mem_ctrls0.wrQLenPdf::41                     0                       # What write queue length does an incoming req see
system.mem_ctrls0.wrQLenPdf::42                     0                       # What write queue length does an incoming req see
system.mem_ctrls0.wrQLenPdf::43                     0                       # What write queue length does an incoming req see
system.mem_ctrls0.wrQLenPdf::44                     0                       # What write queue length does an incoming req see
system.mem_ctrls0.wrQLenPdf::45                     0                       # What write queue length does an incoming req see
system.mem_ctrls0.wrQLenPdf::46                     0                       # What write queue length does an incoming req see
system.mem_ctrls0.wrQLenPdf::47                     0                       # What write queue length does an incoming req see
system.mem_ctrls0.wrQLenPdf::48                     0                       # What write queue length does an incoming req see
system.mem_ctrls0.wrQLenPdf::49                     0                       # What write queue length does an incoming req see
system.mem_ctrls0.wrQLenPdf::50                     0                       # What write queue length does an incoming req see
system.mem_ctrls0.wrQLenPdf::51                     0                       # What write queue length does an incoming req see
system.mem_ctrls0.wrQLenPdf::52                     0                       # What write queue length does an incoming req see
system.mem_ctrls0.wrQLenPdf::53                     0                       # What write queue length does an incoming req see
system.mem_ctrls0.wrQLenPdf::54                     0                       # What write queue length does an incoming req see
system.mem_ctrls0.wrQLenPdf::55                     0                       # What write queue length does an incoming req see
system.mem_ctrls0.wrQLenPdf::56                     0                       # What write queue length does an incoming req see
system.mem_ctrls0.wrQLenPdf::57                     0                       # What write queue length does an incoming req see
system.mem_ctrls0.wrQLenPdf::58                     0                       # What write queue length does an incoming req see
system.mem_ctrls0.wrQLenPdf::59                     0                       # What write queue length does an incoming req see
system.mem_ctrls0.wrQLenPdf::60                     0                       # What write queue length does an incoming req see
system.mem_ctrls0.wrQLenPdf::61                     0                       # What write queue length does an incoming req see
system.mem_ctrls0.wrQLenPdf::62                     0                       # What write queue length does an incoming req see
system.mem_ctrls0.wrQLenPdf::63                     0                       # What write queue length does an incoming req see
system.mem_ctrls0.bytesPerActivate::samples       525952                       # Bytes accessed per row activation
system.mem_ctrls0.bytesPerActivate::mean   192.641762                       # Bytes accessed per row activation
system.mem_ctrls0.bytesPerActivate::gmean   134.152713                       # Bytes accessed per row activation
system.mem_ctrls0.bytesPerActivate::stdev   184.815602                       # Bytes accessed per row activation
system.mem_ctrls0.bytesPerActivate::0-127       247291     47.02%     47.02% # Bytes accessed per row activation
system.mem_ctrls0.bytesPerActivate::128-255       118329     22.50%     69.52% # Bytes accessed per row activation
system.mem_ctrls0.bytesPerActivate::256-383        60160     11.44%     80.95% # Bytes accessed per row activation
system.mem_ctrls0.bytesPerActivate::384-511        61101     11.62%     92.57% # Bytes accessed per row activation
system.mem_ctrls0.bytesPerActivate::512-639        24139      4.59%     97.16% # Bytes accessed per row activation
system.mem_ctrls0.bytesPerActivate::640-767         4428      0.84%     98.00% # Bytes accessed per row activation
system.mem_ctrls0.bytesPerActivate::768-895         2175      0.41%     98.42% # Bytes accessed per row activation
system.mem_ctrls0.bytesPerActivate::896-1023         1975      0.38%     98.79% # Bytes accessed per row activation
system.mem_ctrls0.bytesPerActivate::1024-1151         6354      1.21%    100.00% # Bytes accessed per row activation
system.mem_ctrls0.bytesPerActivate::total       525952                       # Bytes accessed per row activation
system.mem_ctrls0.rdPerTurnAround::samples         4631                       # Reads before turning the bus around for writes
system.mem_ctrls0.rdPerTurnAround::mean    323.533578                       # Reads before turning the bus around for writes
system.mem_ctrls0.rdPerTurnAround::gmean   142.432950                       # Reads before turning the bus around for writes
system.mem_ctrls0.rdPerTurnAround::stdev   831.997108                       # Reads before turning the bus around for writes
system.mem_ctrls0.rdPerTurnAround::0-1023         4320     93.28%     93.28% # Reads before turning the bus around for writes
system.mem_ctrls0.rdPerTurnAround::1024-2047          183      3.95%     97.24% # Reads before turning the bus around for writes
system.mem_ctrls0.rdPerTurnAround::2048-3071           60      1.30%     98.53% # Reads before turning the bus around for writes
system.mem_ctrls0.rdPerTurnAround::3072-4095           21      0.45%     98.99% # Reads before turning the bus around for writes
system.mem_ctrls0.rdPerTurnAround::4096-5119           17      0.37%     99.35% # Reads before turning the bus around for writes
system.mem_ctrls0.rdPerTurnAround::5120-6143           14      0.30%     99.65% # Reads before turning the bus around for writes
system.mem_ctrls0.rdPerTurnAround::6144-7167           10      0.22%     99.87% # Reads before turning the bus around for writes
system.mem_ctrls0.rdPerTurnAround::7168-8191            3      0.06%     99.94% # Reads before turning the bus around for writes
system.mem_ctrls0.rdPerTurnAround::8192-9215            2      0.04%     99.98% # Reads before turning the bus around for writes
system.mem_ctrls0.rdPerTurnAround::29696-30719            1      0.02%    100.00% # Reads before turning the bus around for writes
system.mem_ctrls0.rdPerTurnAround::total         4631                       # Reads before turning the bus around for writes
system.mem_ctrls0.wrPerTurnAround::samples         4631                       # Writes before turning the bus around for reads
system.mem_ctrls0.wrPerTurnAround::mean     17.869359                       # Writes before turning the bus around for reads
system.mem_ctrls0.wrPerTurnAround::gmean    17.860687                       # Writes before turning the bus around for reads
system.mem_ctrls0.wrPerTurnAround::stdev     0.543956                       # Writes before turning the bus around for reads
system.mem_ctrls0.wrPerTurnAround::16             319      6.89%      6.89% # Writes before turning the bus around for reads
system.mem_ctrls0.wrPerTurnAround::17              38      0.82%      7.71% # Writes before turning the bus around for reads
system.mem_ctrls0.wrPerTurnAround::18            4213     90.97%     98.68% # Writes before turning the bus around for reads
system.mem_ctrls0.wrPerTurnAround::19              58      1.25%     99.94% # Writes before turning the bus around for reads
system.mem_ctrls0.wrPerTurnAround::20               1      0.02%     99.96% # Writes before turning the bus around for reads
system.mem_ctrls0.wrPerTurnAround::21               1      0.02%     99.98% # Writes before turning the bus around for reads
system.mem_ctrls0.wrPerTurnAround::26               1      0.02%    100.00% # Writes before turning the bus around for reads
system.mem_ctrls0.wrPerTurnAround::total         4631                       # Writes before turning the bus around for reads
system.mem_ctrls0.totQLat                 45971806050                       # Total ticks spent queuing
system.mem_ctrls0.totMemAccLat            74103874800                       # Total ticks spent from burst creation until serviced by the DRAM
system.mem_ctrls0.totBusLat                7501885000                       # Total ticks spent in databus transfers
system.mem_ctrls0.avgQLat                    30640.17                       # Average queueing delay per DRAM burst
system.mem_ctrls0.avgBusLat                   5000.00                       # Average bus latency per DRAM burst
system.mem_ctrls0.avgMemAccLat               49390.17                       # Average memory access latency per DRAM burst
system.mem_ctrls0.avgRdBW                       51.84                       # Average DRAM read bandwidth in MiByte/s
system.mem_ctrls0.avgWrBW                        2.86                       # Average achieved write bandwidth in MiByte/s
system.mem_ctrls0.avgRdBWSys                    52.12                       # Average system read bandwidth in MiByte/s
system.mem_ctrls0.avgWrBWSys                     2.87                       # Average system write bandwidth in MiByte/s
system.mem_ctrls0.peakBW                     12800.00                       # Theoretical peak bandwidth in MiByte/s
system.mem_ctrls0.busUtil                        0.43                       # Data bus utilization in percentage
system.mem_ctrls0.busUtilRead                    0.41                       # Data bus utilization in percentage for reads
system.mem_ctrls0.busUtilWrite                   0.02                       # Data bus utilization in percentage for writes
system.mem_ctrls0.avgRdQLen                      1.01                       # Average read queue length when enqueuing
system.mem_ctrls0.avgWrQLen                     24.40                       # Average write queue length when enqueuing
system.mem_ctrls0.readRowHits                 1005428                       # Number of row buffer hits during reads
system.mem_ctrls0.writeRowHits                  51750                       # Number of row buffer hits during writes
system.mem_ctrls0.readRowHitRate                67.01                       # Row buffer hit rate for reads
system.mem_ctrls0.writeRowHitRate               62.51                       # Row buffer hit rate for writes
system.mem_ctrls0.avgGap                   1163832.64                       # Average gap between requests
system.mem_ctrls0.pageHitRate                   66.78                       # Row buffer hit rate, read and write combined
system.mem_ctrls0_0.actEnergy              2034178860                       # Energy for activate commands per rank (pJ)
system.mem_ctrls0_0.preEnergy              1081191705                       # Energy for precharge commands per rank (pJ)
system.mem_ctrls0_0.readEnergy             5568707340                       # Energy for read commands per rank (pJ)
system.mem_ctrls0_0.writeEnergy             207970020                       # Energy for write commands per rank (pJ)
system.mem_ctrls0_0.refreshEnergy        102200495280.000015                       # Energy for refresh commands per rank (pJ)
system.mem_ctrls0_0.actBackEnergy         31714138800                       # Energy for active background per rank (pJ)
system.mem_ctrls0_0.preBackEnergy          4067158560                       # Energy for precharge background per rank (pJ)
system.mem_ctrls0_0.actPowerDownEnergy   343871944410                       # Energy for active power-down per rank (pJ)
system.mem_ctrls0_0.prePowerDownEnergy   116727429120                       # Energy for precharge power-down per rank (pJ)
system.mem_ctrls0_0.selfRefreshEnergy    183299352660                       # Energy for self refresh per rank (pJ)
system.mem_ctrls0_0.totalEnergy          790807756455                       # Total energy per rank (pJ)
system.mem_ctrls0_0.averagePower           426.937377                       # Core power per rank (mW)
system.mem_ctrls0_0.totalIdleTime        1772050993454                       # Total Idle time Per DRAM Rank
system.mem_ctrls0_0.memoryStateTime::IDLE   6455717000                       # Time in different power states
system.mem_ctrls0_0.memoryStateTime::REF  43364944000                       # Time in different power states
system.mem_ctrls0_0.memoryStateTime::SREF 713979268182                       # Time in different power states
system.mem_ctrls0_0.memoryStateTime::PRE_PDN 303978388764                       # Time in different power states
system.mem_ctrls0_0.memoryStateTime::ACT  30397326777                       # Time in different power states
system.mem_ctrls0_0.memoryStateTime::ACT_PDN 754104788709                       # Time in different power states
system.mem_ctrls0_1.actEnergy              1721118420                       # Energy for activate commands per rank (pJ)
system.mem_ctrls0_1.preEnergy               914796135                       # Energy for precharge commands per rank (pJ)
system.mem_ctrls0_1.readEnergy             5143984440                       # Energy for read commands per rank (pJ)
system.mem_ctrls0_1.writeEnergy             224000640                       # Energy for write commands per rank (pJ)
system.mem_ctrls0_1.refreshEnergy        96192389280.000015                       # Energy for refresh commands per rank (pJ)
system.mem_ctrls0_1.actBackEnergy         30476736630                       # Energy for active background per rank (pJ)
system.mem_ctrls0_1.preBackEnergy          3931883520                       # Energy for precharge background per rank (pJ)
system.mem_ctrls0_1.actPowerDownEnergy   318960413610                       # Energy for active power-down per rank (pJ)
system.mem_ctrls0_1.prePowerDownEnergy   110290607520                       # Energy for precharge power-down per rank (pJ)
system.mem_ctrls0_1.selfRefreshEnergy    201044357970                       # Energy for self refresh per rank (pJ)
system.mem_ctrls0_1.totalEnergy          768936841095                       # Total energy per rank (pJ)
system.mem_ctrls0_1.averagePower           415.129816                       # Core power per rank (mW)
system.mem_ctrls0_1.totalIdleTime        1775124276397                       # Total Idle time Per DRAM Rank
system.mem_ctrls0_1.memoryStateTime::IDLE   6373399775                       # Time in different power states
system.mem_ctrls0_1.memoryStateTime::REF  40821902000                       # Time in different power states
system.mem_ctrls0_1.memoryStateTime::SREF 788435081904                       # Time in different power states
system.mem_ctrls0_1.memoryStateTime::PRE_PDN 287215013987                       # Time in different power states
system.mem_ctrls0_1.memoryStateTime::ACT  29959145982                       # Time in different power states
system.mem_ctrls0_1.memoryStateTime::ACT_PDN 699475889784                       # Time in different power states
system.mem_ctrls1.pwrStateResidencyTicks::UNDEFINED 734804720987418                       # Cumulative time (in ticks) in various power states
system.mem_ctrls1.bytes_read::cpu.inst             64                       # Number of bytes read from this memory
system.mem_ctrls1.bytes_read::cpu.data            192                       # Number of bytes read from this memory
system.mem_ctrls1.bytes_read::switch_cpus.inst       180800                       # Number of bytes read from this memory
system.mem_ctrls1.bytes_read::switch_cpus.data     75787776                       # Number of bytes read from this memory
system.mem_ctrls1.bytes_read::switch_cpus_1.inst        46144                       # Number of bytes read from this memory
system.mem_ctrls1.bytes_read::switch_cpus_1.data     20261888                       # Number of bytes read from this memory
system.mem_ctrls1.bytes_read::total          96276864                       # Number of bytes read from this memory
system.mem_ctrls1.bytes_inst_read::cpu.inst           64                       # Number of instructions bytes read from this memory
system.mem_ctrls1.bytes_inst_read::switch_cpus.inst       180800                       # Number of instructions bytes read from this memory
system.mem_ctrls1.bytes_inst_read::switch_cpus_1.inst        46144                       # Number of instructions bytes read from this memory
system.mem_ctrls1.bytes_inst_read::total       227008                       # Number of instructions bytes read from this memory
system.mem_ctrls1.bytes_written::writebacks      5214336                       # Number of bytes written to this memory
system.mem_ctrls1.bytes_written::total        5214336                       # Number of bytes written to this memory
system.mem_ctrls1.num_reads::cpu.inst               1                       # Number of read requests responded to by this memory
system.mem_ctrls1.num_reads::cpu.data               3                       # Number of read requests responded to by this memory
system.mem_ctrls1.num_reads::switch_cpus.inst         2825                       # Number of read requests responded to by this memory
system.mem_ctrls1.num_reads::switch_cpus.data      1184184                       # Number of read requests responded to by this memory
system.mem_ctrls1.num_reads::switch_cpus_1.inst          721                       # Number of read requests responded to by this memory
system.mem_ctrls1.num_reads::switch_cpus_1.data       316592                       # Number of read requests responded to by this memory
system.mem_ctrls1.num_reads::total            1504326                       # Number of read requests responded to by this memory
system.mem_ctrls1.num_writes::writebacks        81474                       # Number of write requests responded to by this memory
system.mem_ctrls1.num_writes::total             81474                       # Number of write requests responded to by this memory
system.mem_ctrls1.bw_read::cpu.inst                35                       # Total read bandwidth from this memory (bytes/s)
system.mem_ctrls1.bw_read::cpu.data               104                       # Total read bandwidth from this memory (bytes/s)
system.mem_ctrls1.bw_read::switch_cpus.inst        97609                       # Total read bandwidth from this memory (bytes/s)
system.mem_ctrls1.bw_read::switch_cpus.data     40915930                       # Total read bandwidth from this memory (bytes/s)
system.mem_ctrls1.bw_read::switch_cpus_1.inst        24912                       # Total read bandwidth from this memory (bytes/s)
system.mem_ctrls1.bw_read::switch_cpus_1.data     10938888                       # Total read bandwidth from this memory (bytes/s)
system.mem_ctrls1.bw_read::total             51977477                       # Total read bandwidth from this memory (bytes/s)
system.mem_ctrls1.bw_inst_read::cpu.inst           35                       # Instruction read bandwidth from this memory (bytes/s)
system.mem_ctrls1.bw_inst_read::switch_cpus.inst        97609                       # Instruction read bandwidth from this memory (bytes/s)
system.mem_ctrls1.bw_inst_read::switch_cpus_1.inst        24912                       # Instruction read bandwidth from this memory (bytes/s)
system.mem_ctrls1.bw_inst_read::total          122556                       # Instruction read bandwidth from this memory (bytes/s)
system.mem_ctrls1.bw_write::writebacks        2815090                       # Write bandwidth from this memory (bytes/s)
system.mem_ctrls1.bw_write::total             2815090                       # Write bandwidth from this memory (bytes/s)
system.mem_ctrls1.bw_total::writebacks        2815090                       # Total bandwidth to/from this memory (bytes/s)
system.mem_ctrls1.bw_total::cpu.inst               35                       # Total bandwidth to/from this memory (bytes/s)
system.mem_ctrls1.bw_total::cpu.data              104                       # Total bandwidth to/from this memory (bytes/s)
system.mem_ctrls1.bw_total::switch_cpus.inst        97609                       # Total bandwidth to/from this memory (bytes/s)
system.mem_ctrls1.bw_total::switch_cpus.data     40915930                       # Total bandwidth to/from this memory (bytes/s)
system.mem_ctrls1.bw_total::switch_cpus_1.inst        24912                       # Total bandwidth to/from this memory (bytes/s)
system.mem_ctrls1.bw_total::switch_cpus_1.data     10938888                       # Total bandwidth to/from this memory (bytes/s)
system.mem_ctrls1.bw_total::total            54792567                       # Total bandwidth to/from this memory (bytes/s)
system.mem_ctrls1.readReqs                    1504326                       # Number of read requests accepted
system.mem_ctrls1.writeReqs                     81474                       # Number of write requests accepted
system.mem_ctrls1.readBursts                  1504326                       # Number of DRAM read bursts, including those serviced by the write queue
system.mem_ctrls1.writeBursts                   81474                       # Number of DRAM write bursts, including those merged in the write queue
system.mem_ctrls1.bytesReadDRAM              95762304                       # Total number of bytes read from DRAM
system.mem_ctrls1.bytesReadWrQ                 514560                       # Total number of bytes read from write queue
system.mem_ctrls1.bytesWritten                5196928                       # Total number of bytes written to DRAM
system.mem_ctrls1.bytesReadSys               96276864                       # Total read bytes from the system interface side
system.mem_ctrls1.bytesWrittenSys             5214336                       # Total written bytes from the system interface side
system.mem_ctrls1.servicedByWrQ                  8040                       # Number of DRAM read bursts serviced by the write queue
system.mem_ctrls1.mergedWrBursts                  245                       # Number of DRAM write bursts merged with an existing one
system.mem_ctrls1.neitherReadNorWriteReqs            0                       # Number of requests that are neither read nor write
system.mem_ctrls1.perBankRdBursts::0           127836                       # Per bank write bursts
system.mem_ctrls1.perBankRdBursts::1           142959                       # Per bank write bursts
system.mem_ctrls1.perBankRdBursts::2           115666                       # Per bank write bursts
system.mem_ctrls1.perBankRdBursts::3            67399                       # Per bank write bursts
system.mem_ctrls1.perBankRdBursts::4            80844                       # Per bank write bursts
system.mem_ctrls1.perBankRdBursts::5            63615                       # Per bank write bursts
system.mem_ctrls1.perBankRdBursts::6            54809                       # Per bank write bursts
system.mem_ctrls1.perBankRdBursts::7           128172                       # Per bank write bursts
system.mem_ctrls1.perBankRdBursts::8           117681                       # Per bank write bursts
system.mem_ctrls1.perBankRdBursts::9           121833                       # Per bank write bursts
system.mem_ctrls1.perBankRdBursts::10           96230                       # Per bank write bursts
system.mem_ctrls1.perBankRdBursts::11           57574                       # Per bank write bursts
system.mem_ctrls1.perBankRdBursts::12           77775                       # Per bank write bursts
system.mem_ctrls1.perBankRdBursts::13           68433                       # Per bank write bursts
system.mem_ctrls1.perBankRdBursts::14           52798                       # Per bank write bursts
system.mem_ctrls1.perBankRdBursts::15          122662                       # Per bank write bursts
system.mem_ctrls1.perBankWrBursts::0             8597                       # Per bank write bursts
system.mem_ctrls1.perBankWrBursts::1             9138                       # Per bank write bursts
system.mem_ctrls1.perBankWrBursts::2             7730                       # Per bank write bursts
system.mem_ctrls1.perBankWrBursts::3             3957                       # Per bank write bursts
system.mem_ctrls1.perBankWrBursts::4             2461                       # Per bank write bursts
system.mem_ctrls1.perBankWrBursts::5             2898                       # Per bank write bursts
system.mem_ctrls1.perBankWrBursts::6             1469                       # Per bank write bursts
system.mem_ctrls1.perBankWrBursts::7             2187                       # Per bank write bursts
system.mem_ctrls1.perBankWrBursts::8             1540                       # Per bank write bursts
system.mem_ctrls1.perBankWrBursts::9             2977                       # Per bank write bursts
system.mem_ctrls1.perBankWrBursts::10            7227                       # Per bank write bursts
system.mem_ctrls1.perBankWrBursts::11            4675                       # Per bank write bursts
system.mem_ctrls1.perBankWrBursts::12            6732                       # Per bank write bursts
system.mem_ctrls1.perBankWrBursts::13            6139                       # Per bank write bursts
system.mem_ctrls1.perBankWrBursts::14            4637                       # Per bank write bursts
system.mem_ctrls1.perBankWrBursts::15            8838                       # Per bank write bursts
system.mem_ctrls1.numRdRetry                        0                       # Number of times read queue was full causing retry
system.mem_ctrls1.numWrRetry                        0                       # Number of times write queue was full causing retry
system.mem_ctrls1.totGap                 1852222137120                       # Total gap between requests
system.mem_ctrls1.readPktSize::0                    0                       # Read request sizes (log2)
system.mem_ctrls1.readPktSize::1                    0                       # Read request sizes (log2)
system.mem_ctrls1.readPktSize::2                    0                       # Read request sizes (log2)
system.mem_ctrls1.readPktSize::3                    0                       # Read request sizes (log2)
system.mem_ctrls1.readPktSize::4                    0                       # Read request sizes (log2)
system.mem_ctrls1.readPktSize::5                    0                       # Read request sizes (log2)
system.mem_ctrls1.readPktSize::6              1504326                       # Read request sizes (log2)
system.mem_ctrls1.writePktSize::0                   0                       # Write request sizes (log2)
system.mem_ctrls1.writePktSize::1                   0                       # Write request sizes (log2)
system.mem_ctrls1.writePktSize::2                   0                       # Write request sizes (log2)
system.mem_ctrls1.writePktSize::3                   0                       # Write request sizes (log2)
system.mem_ctrls1.writePktSize::4                   0                       # Write request sizes (log2)
system.mem_ctrls1.writePktSize::5                   0                       # Write request sizes (log2)
system.mem_ctrls1.writePktSize::6               81474                       # Write request sizes (log2)
system.mem_ctrls1.rdQLenPdf::0                1421999                       # What read queue length does an incoming req see
system.mem_ctrls1.rdQLenPdf::1                  66885                       # What read queue length does an incoming req see
system.mem_ctrls1.rdQLenPdf::2                   6797                       # What read queue length does an incoming req see
system.mem_ctrls1.rdQLenPdf::3                    605                       # What read queue length does an incoming req see
system.mem_ctrls1.rdQLenPdf::4                      0                       # What read queue length does an incoming req see
system.mem_ctrls1.rdQLenPdf::5                      0                       # What read queue length does an incoming req see
system.mem_ctrls1.rdQLenPdf::6                      0                       # What read queue length does an incoming req see
system.mem_ctrls1.rdQLenPdf::7                      0                       # What read queue length does an incoming req see
system.mem_ctrls1.rdQLenPdf::8                      0                       # What read queue length does an incoming req see
system.mem_ctrls1.rdQLenPdf::9                      0                       # What read queue length does an incoming req see
system.mem_ctrls1.rdQLenPdf::10                     0                       # What read queue length does an incoming req see
system.mem_ctrls1.rdQLenPdf::11                     0                       # What read queue length does an incoming req see
system.mem_ctrls1.rdQLenPdf::12                     0                       # What read queue length does an incoming req see
system.mem_ctrls1.rdQLenPdf::13                     0                       # What read queue length does an incoming req see
system.mem_ctrls1.rdQLenPdf::14                     0                       # What read queue length does an incoming req see
system.mem_ctrls1.rdQLenPdf::15                     0                       # What read queue length does an incoming req see
system.mem_ctrls1.rdQLenPdf::16                     0                       # What read queue length does an incoming req see
system.mem_ctrls1.rdQLenPdf::17                     0                       # What read queue length does an incoming req see
system.mem_ctrls1.rdQLenPdf::18                     0                       # What read queue length does an incoming req see
system.mem_ctrls1.rdQLenPdf::19                     0                       # What read queue length does an incoming req see
system.mem_ctrls1.rdQLenPdf::20                     0                       # What read queue length does an incoming req see
system.mem_ctrls1.rdQLenPdf::21                     0                       # What read queue length does an incoming req see
system.mem_ctrls1.rdQLenPdf::22                     0                       # What read queue length does an incoming req see
system.mem_ctrls1.rdQLenPdf::23                     0                       # What read queue length does an incoming req see
system.mem_ctrls1.rdQLenPdf::24                     0                       # What read queue length does an incoming req see
system.mem_ctrls1.rdQLenPdf::25                     0                       # What read queue length does an incoming req see
system.mem_ctrls1.rdQLenPdf::26                     0                       # What read queue length does an incoming req see
system.mem_ctrls1.rdQLenPdf::27                     0                       # What read queue length does an incoming req see
system.mem_ctrls1.rdQLenPdf::28                     0                       # What read queue length does an incoming req see
system.mem_ctrls1.rdQLenPdf::29                     0                       # What read queue length does an incoming req see
system.mem_ctrls1.rdQLenPdf::30                     0                       # What read queue length does an incoming req see
system.mem_ctrls1.rdQLenPdf::31                     0                       # What read queue length does an incoming req see
system.mem_ctrls1.wrQLenPdf::0                      2                       # What write queue length does an incoming req see
system.mem_ctrls1.wrQLenPdf::1                      2                       # What write queue length does an incoming req see
system.mem_ctrls1.wrQLenPdf::2                      2                       # What write queue length does an incoming req see
system.mem_ctrls1.wrQLenPdf::3                      2                       # What write queue length does an incoming req see
system.mem_ctrls1.wrQLenPdf::4                      2                       # What write queue length does an incoming req see
system.mem_ctrls1.wrQLenPdf::5                      2                       # What write queue length does an incoming req see
system.mem_ctrls1.wrQLenPdf::6                      2                       # What write queue length does an incoming req see
system.mem_ctrls1.wrQLenPdf::7                      2                       # What write queue length does an incoming req see
system.mem_ctrls1.wrQLenPdf::8                      2                       # What write queue length does an incoming req see
system.mem_ctrls1.wrQLenPdf::9                      2                       # What write queue length does an incoming req see
system.mem_ctrls1.wrQLenPdf::10                     2                       # What write queue length does an incoming req see
system.mem_ctrls1.wrQLenPdf::11                     2                       # What write queue length does an incoming req see
system.mem_ctrls1.wrQLenPdf::12                     2                       # What write queue length does an incoming req see
system.mem_ctrls1.wrQLenPdf::13                     2                       # What write queue length does an incoming req see
system.mem_ctrls1.wrQLenPdf::14                     2                       # What write queue length does an incoming req see
system.mem_ctrls1.wrQLenPdf::15                  4207                       # What write queue length does an incoming req see
system.mem_ctrls1.wrQLenPdf::16                  4244                       # What write queue length does an incoming req see
system.mem_ctrls1.wrQLenPdf::17                  4536                       # What write queue length does an incoming req see
system.mem_ctrls1.wrQLenPdf::18                  4551                       # What write queue length does an incoming req see
system.mem_ctrls1.wrQLenPdf::19                  4551                       # What write queue length does an incoming req see
system.mem_ctrls1.wrQLenPdf::20                  4546                       # What write queue length does an incoming req see
system.mem_ctrls1.wrQLenPdf::21                  4551                       # What write queue length does an incoming req see
system.mem_ctrls1.wrQLenPdf::22                  4544                       # What write queue length does an incoming req see
system.mem_ctrls1.wrQLenPdf::23                  4545                       # What write queue length does an incoming req see
system.mem_ctrls1.wrQLenPdf::24                  4543                       # What write queue length does an incoming req see
system.mem_ctrls1.wrQLenPdf::25                  4549                       # What write queue length does an incoming req see
system.mem_ctrls1.wrQLenPdf::26                  4546                       # What write queue length does an incoming req see
system.mem_ctrls1.wrQLenPdf::27                  4544                       # What write queue length does an incoming req see
system.mem_ctrls1.wrQLenPdf::28                  4547                       # What write queue length does an incoming req see
system.mem_ctrls1.wrQLenPdf::29                  4545                       # What write queue length does an incoming req see
system.mem_ctrls1.wrQLenPdf::30                  4564                       # What write queue length does an incoming req see
system.mem_ctrls1.wrQLenPdf::31                  4541                       # What write queue length does an incoming req see
system.mem_ctrls1.wrQLenPdf::32                  4540                       # What write queue length does an incoming req see
system.mem_ctrls1.wrQLenPdf::33                     5                       # What write queue length does an incoming req see
system.mem_ctrls1.wrQLenPdf::34                     0                       # What write queue length does an incoming req see
system.mem_ctrls1.wrQLenPdf::35                     0                       # What write queue length does an incoming req see
system.mem_ctrls1.wrQLenPdf::36                     0                       # What write queue length does an incoming req see
system.mem_ctrls1.wrQLenPdf::37                     0                       # What write queue length does an incoming req see
system.mem_ctrls1.wrQLenPdf::38                     0                       # What write queue length does an incoming req see
system.mem_ctrls1.wrQLenPdf::39                     0                       # What write queue length does an incoming req see
system.mem_ctrls1.wrQLenPdf::40                     0                       # What write queue length does an incoming req see
system.mem_ctrls1.wrQLenPdf::41                     0                       # What write queue length does an incoming req see
system.mem_ctrls1.wrQLenPdf::42                     0                       # What write queue length does an incoming req see
system.mem_ctrls1.wrQLenPdf::43                     0                       # What write queue length does an incoming req see
system.mem_ctrls1.wrQLenPdf::44                     0                       # What write queue length does an incoming req see
system.mem_ctrls1.wrQLenPdf::45                     0                       # What write queue length does an incoming req see
system.mem_ctrls1.wrQLenPdf::46                     0                       # What write queue length does an incoming req see
system.mem_ctrls1.wrQLenPdf::47                     0                       # What write queue length does an incoming req see
system.mem_ctrls1.wrQLenPdf::48                     0                       # What write queue length does an incoming req see
system.mem_ctrls1.wrQLenPdf::49                     0                       # What write queue length does an incoming req see
system.mem_ctrls1.wrQLenPdf::50                     0                       # What write queue length does an incoming req see
system.mem_ctrls1.wrQLenPdf::51                     0                       # What write queue length does an incoming req see
system.mem_ctrls1.wrQLenPdf::52                     0                       # What write queue length does an incoming req see
system.mem_ctrls1.wrQLenPdf::53                     0                       # What write queue length does an incoming req see
system.mem_ctrls1.wrQLenPdf::54                     0                       # What write queue length does an incoming req see
system.mem_ctrls1.wrQLenPdf::55                     0                       # What write queue length does an incoming req see
system.mem_ctrls1.wrQLenPdf::56                     0                       # What write queue length does an incoming req see
system.mem_ctrls1.wrQLenPdf::57                     0                       # What write queue length does an incoming req see
system.mem_ctrls1.wrQLenPdf::58                     0                       # What write queue length does an incoming req see
system.mem_ctrls1.wrQLenPdf::59                     0                       # What write queue length does an incoming req see
system.mem_ctrls1.wrQLenPdf::60                     0                       # What write queue length does an incoming req see
system.mem_ctrls1.wrQLenPdf::61                     0                       # What write queue length does an incoming req see
system.mem_ctrls1.wrQLenPdf::62                     0                       # What write queue length does an incoming req see
system.mem_ctrls1.wrQLenPdf::63                     0                       # What write queue length does an incoming req see
system.mem_ctrls1.bytesPerActivate::samples       522545                       # Bytes accessed per row activation
system.mem_ctrls1.bytesPerActivate::mean   193.206771                       # Bytes accessed per row activation
system.mem_ctrls1.bytesPerActivate::gmean   134.574562                       # Bytes accessed per row activation
system.mem_ctrls1.bytesPerActivate::stdev   184.921758                       # Bytes accessed per row activation
system.mem_ctrls1.bytesPerActivate::0-127       244668     46.82%     46.82% # Bytes accessed per row activation
system.mem_ctrls1.bytesPerActivate::128-255       117762     22.54%     69.36% # Bytes accessed per row activation
system.mem_ctrls1.bytesPerActivate::256-383        60211     11.52%     80.88% # Bytes accessed per row activation
system.mem_ctrls1.bytesPerActivate::384-511        60743     11.62%     92.51% # Bytes accessed per row activation
system.mem_ctrls1.bytesPerActivate::512-639        24256      4.64%     97.15% # Bytes accessed per row activation
system.mem_ctrls1.bytesPerActivate::640-767         4455      0.85%     98.00% # Bytes accessed per row activation
system.mem_ctrls1.bytesPerActivate::768-895         2225      0.43%     98.43% # Bytes accessed per row activation
system.mem_ctrls1.bytesPerActivate::896-1023         1888      0.36%     98.79% # Bytes accessed per row activation
system.mem_ctrls1.bytesPerActivate::1024-1151         6337      1.21%    100.00% # Bytes accessed per row activation
system.mem_ctrls1.bytesPerActivate::total       522545                       # Bytes accessed per row activation
system.mem_ctrls1.rdPerTurnAround::samples         4541                       # Reads before turning the bus around for writes
system.mem_ctrls1.rdPerTurnAround::mean    329.029068                       # Reads before turning the bus around for writes
system.mem_ctrls1.rdPerTurnAround::gmean   144.458759                       # Reads before turning the bus around for writes
system.mem_ctrls1.rdPerTurnAround::stdev   840.053642                       # Reads before turning the bus around for writes
system.mem_ctrls1.rdPerTurnAround::0-1023         4224     93.02%     93.02% # Reads before turning the bus around for writes
system.mem_ctrls1.rdPerTurnAround::1024-2047          196      4.32%     97.34% # Reads before turning the bus around for writes
system.mem_ctrls1.rdPerTurnAround::2048-3071           57      1.26%     98.59% # Reads before turning the bus around for writes
system.mem_ctrls1.rdPerTurnAround::3072-4095           18      0.40%     98.99% # Reads before turning the bus around for writes
system.mem_ctrls1.rdPerTurnAround::4096-5119           16      0.35%     99.34% # Reads before turning the bus around for writes
system.mem_ctrls1.rdPerTurnAround::5120-6143           14      0.31%     99.65% # Reads before turning the bus around for writes
system.mem_ctrls1.rdPerTurnAround::6144-7167            9      0.20%     99.85% # Reads before turning the bus around for writes
system.mem_ctrls1.rdPerTurnAround::7168-8191            4      0.09%     99.93% # Reads before turning the bus around for writes
system.mem_ctrls1.rdPerTurnAround::8192-9215            2      0.04%     99.98% # Reads before turning the bus around for writes
system.mem_ctrls1.rdPerTurnAround::29696-30719            1      0.02%    100.00% # Reads before turning the bus around for writes
system.mem_ctrls1.rdPerTurnAround::total         4541                       # Reads before turning the bus around for writes
system.mem_ctrls1.wrPerTurnAround::samples         4541                       # Writes before turning the bus around for reads
system.mem_ctrls1.wrPerTurnAround::mean     17.881964                       # Writes before turning the bus around for reads
system.mem_ctrls1.wrPerTurnAround::gmean    17.873020                       # Writes before turning the bus around for reads
system.mem_ctrls1.wrPerTurnAround::stdev     0.563722                       # Writes before turning the bus around for reads
system.mem_ctrls1.wrPerTurnAround::16             298      6.56%      6.56% # Writes before turning the bus around for reads
system.mem_ctrls1.wrPerTurnAround::17              35      0.77%      7.33% # Writes before turning the bus around for reads
system.mem_ctrls1.wrPerTurnAround::18            4127     90.88%     98.22% # Writes before turning the bus around for reads
system.mem_ctrls1.wrPerTurnAround::19              79      1.74%     99.96% # Writes before turning the bus around for reads
system.mem_ctrls1.wrPerTurnAround::20               1      0.02%     99.98% # Writes before turning the bus around for reads
system.mem_ctrls1.wrPerTurnAround::32               1      0.02%    100.00% # Writes before turning the bus around for reads
system.mem_ctrls1.wrPerTurnAround::total         4541                       # Writes before turning the bus around for reads
system.mem_ctrls1.totQLat                 45909976015                       # Total ticks spent queuing
system.mem_ctrls1.totMemAccLat            73965338515                       # Total ticks spent from burst creation until serviced by the DRAM
system.mem_ctrls1.totBusLat                7481430000                       # Total ticks spent in databus transfers
system.mem_ctrls1.avgQLat                    30682.62                       # Average queueing delay per DRAM burst
system.mem_ctrls1.avgBusLat                   5000.00                       # Average bus latency per DRAM burst
system.mem_ctrls1.avgMemAccLat               49432.62                       # Average memory access latency per DRAM burst
system.mem_ctrls1.avgRdBW                       51.70                       # Average DRAM read bandwidth in MiByte/s
system.mem_ctrls1.avgWrBW                        2.81                       # Average achieved write bandwidth in MiByte/s
system.mem_ctrls1.avgRdBWSys                    51.98                       # Average system read bandwidth in MiByte/s
system.mem_ctrls1.avgWrBWSys                     2.82                       # Average system write bandwidth in MiByte/s
system.mem_ctrls1.peakBW                     12800.00                       # Theoretical peak bandwidth in MiByte/s
system.mem_ctrls1.busUtil                        0.43                       # Data bus utilization in percentage
system.mem_ctrls1.busUtilRead                    0.40                       # Data bus utilization in percentage for reads
system.mem_ctrls1.busUtilWrite                   0.02                       # Data bus utilization in percentage for writes
system.mem_ctrls1.avgRdQLen                      1.01                       # Average read queue length when enqueuing
system.mem_ctrls1.avgWrQLen                     24.19                       # Average write queue length when enqueuing
system.mem_ctrls1.readRowHits                 1004193                       # Number of row buffer hits during reads
system.mem_ctrls1.writeRowHits                  50750                       # Number of row buffer hits during writes
system.mem_ctrls1.readRowHitRate                67.11                       # Row buffer hit rate for reads
system.mem_ctrls1.writeRowHitRate               62.48                       # Row buffer hit rate for writes
system.mem_ctrls1.avgGap                   1168004.88                       # Average gap between requests
system.mem_ctrls1.pageHitRate                   66.87                       # Row buffer hit rate, read and write combined
system.mem_ctrls1_0.actEnergy              2041547340                       # Energy for activate commands per rank (pJ)
system.mem_ctrls1_0.preEnergy              1085108145                       # Energy for precharge commands per rank (pJ)
system.mem_ctrls1_0.readEnergy             5578482000                       # Energy for read commands per rank (pJ)
system.mem_ctrls1_0.writeEnergy             200641140                       # Energy for write commands per rank (pJ)
system.mem_ctrls1_0.refreshEnergy        102732773520.000015                       # Energy for refresh commands per rank (pJ)
system.mem_ctrls1_0.actBackEnergy         31699953210                       # Energy for active background per rank (pJ)
system.mem_ctrls1_0.preBackEnergy          4078701120                       # Energy for precharge background per rank (pJ)
system.mem_ctrls1_0.actPowerDownEnergy   345194815230                       # Energy for active power-down per rank (pJ)
system.mem_ctrls1_0.prePowerDownEnergy   118158934080                       # Energy for precharge power-down per rank (pJ)
system.mem_ctrls1_0.selfRefreshEnergy    181719262065                       # Energy for self refresh per rank (pJ)
system.mem_ctrls1_0.totalEnergy          792534730440                       # Total energy per rank (pJ)
system.mem_ctrls1_0.averagePower           427.869728                       # Core power per rank (mW)
system.mem_ctrls1_0.totalIdleTime        1771999354592                       # Total Idle time Per DRAM Rank
system.mem_ctrls1_0.memoryStateTime::IDLE   6483915404                       # Time in different power states
system.mem_ctrls1_0.memoryStateTime::REF  43590524000                       # Time in different power states
system.mem_ctrls1_0.memoryStateTime::SREF 707330628932                       # Time in different power states
system.mem_ctrls1_0.memoryStateTime::PRE_PDN 307706075268                       # Time in different power states
system.mem_ctrls1_0.memoryStateTime::ACT  30161989642                       # Time in different power states
system.mem_ctrls1_0.memoryStateTime::ACT_PDN 757007300186                       # Time in different power states
system.mem_ctrls1_1.actEnergy              1689423960                       # Energy for activate commands per rank (pJ)
system.mem_ctrls1_1.preEnergy               897950130                       # Energy for precharge commands per rank (pJ)
system.mem_ctrls1_1.readEnergy             5105000040                       # Energy for read commands per rank (pJ)
system.mem_ctrls1_1.writeEnergy             223233300                       # Energy for write commands per rank (pJ)
system.mem_ctrls1_1.refreshEnergy        96129081360.000015                       # Energy for refresh commands per rank (pJ)
system.mem_ctrls1_1.actBackEnergy         30451088910                       # Energy for active background per rank (pJ)
system.mem_ctrls1_1.preBackEnergy          3938566080                       # Energy for precharge background per rank (pJ)
system.mem_ctrls1_1.actPowerDownEnergy   317650018950                       # Energy for active power-down per rank (pJ)
system.mem_ctrls1_1.prePowerDownEnergy   110655013440                       # Energy for precharge power-down per rank (pJ)
system.mem_ctrls1_1.selfRefreshEnergy    201602939940                       # Energy for self refresh per rank (pJ)
system.mem_ctrls1_1.totalEnergy          768375541080                       # Total energy per rank (pJ)
system.mem_ctrls1_1.averagePower           414.826785                       # Core power per rank (mW)
system.mem_ctrls1_1.totalIdleTime        1775082840460                       # Total Idle time Per DRAM Rank
system.mem_ctrls1_1.memoryStateTime::IDLE   6397513974                       # Time in different power states
system.mem_ctrls1_1.memoryStateTime::REF  40796244000                       # Time in different power states
system.mem_ctrls1_1.memoryStateTime::SREF 790406078932                       # Time in different power states
system.mem_ctrls1_1.memoryStateTime::PRE_PDN 288164199734                       # Time in different power states
system.mem_ctrls1_1.memoryStateTime::ACT  29914044221                       # Time in different power states
system.mem_ctrls1_1.memoryStateTime::ACT_PDN 696602352571                       # Time in different power states
system.pwrStateResidencyTicks::UNDEFINED 734804720987418                       # Cumulative time (in ticks) in various power states
system.cpu.branchPred.lookups                       4                       # Number of BP lookups
system.cpu.branchPred.condPredicted                 4                       # Number of conditional branches predicted
system.cpu.branchPred.condIncorrect                 4                       # Number of conditional branches incorrect
system.cpu.branchPred.BTBLookups                    0                       # Number of BTB lookups
system.cpu.branchPred.BTBHits                       0                       # Number of BTB hits
system.cpu.branchPred.BTBCorrect                    0                       # Number of correct BTB predictions (this stat may not work properly.
system.cpu.branchPred.BTBHitPct                   nan                       # BTB Hit Percentage
system.cpu.branchPred.usedRAS                       0                       # Number of times the RAS was used to get a target.
system.cpu.branchPred.RASInCorrect                  0                       # Number of incorrect RAS predictions.
system.cpu.branchPred.indirectLookups               0                       # Number of indirect predictor lookups.
system.cpu.branchPred.indirectHits                  0                       # Number of indirect target hits.
system.cpu.branchPred.indirectMisses                0                       # Number of indirect misses.
system.cpu.branchPredindirectMispredicted            0                       # Number of mispredicted indirect branches.
system.cpu_voltage_domain.voltage                   1                       # Voltage in Volts
system.cpu_clk_domain.clock                       333                       # Clock period in ticks
system.cpu.dtb.fetch_hits                           0                       # ITB hits
system.cpu.dtb.fetch_misses                         0                       # ITB misses
system.cpu.dtb.fetch_acv                            0                       # ITB acv
system.cpu.dtb.fetch_accesses                       0                       # ITB accesses
system.cpu.dtb.read_hits                           36                       # DTB read hits
system.cpu.dtb.read_misses                          0                       # DTB read misses
system.cpu.dtb.read_acv                             0                       # DTB read access violations
system.cpu.dtb.read_accesses                       36                       # DTB read accesses
system.cpu.dtb.write_hits                           0                       # DTB write hits
system.cpu.dtb.write_misses                         0                       # DTB write misses
system.cpu.dtb.write_acv                            0                       # DTB write access violations
system.cpu.dtb.write_accesses                       0                       # DTB write accesses
system.cpu.dtb.data_hits                           36                       # DTB hits
system.cpu.dtb.data_misses                          0                       # DTB misses
system.cpu.dtb.data_acv                             0                       # DTB access violations
system.cpu.dtb.data_accesses                       36                       # DTB accesses
system.cpu.itb.fetch_hits                          13                       # ITB hits
system.cpu.itb.fetch_misses                         0                       # ITB misses
system.cpu.itb.fetch_acv                            0                       # ITB acv
system.cpu.itb.fetch_accesses                      13                       # ITB accesses
system.cpu.itb.read_hits                            0                       # DTB read hits
system.cpu.itb.read_misses                          0                       # DTB read misses
system.cpu.itb.read_acv                             0                       # DTB read access violations
system.cpu.itb.read_accesses                        0                       # DTB read accesses
system.cpu.itb.write_hits                           0                       # DTB write hits
system.cpu.itb.write_misses                         0                       # DTB write misses
system.cpu.itb.write_acv                            0                       # DTB write access violations
system.cpu.itb.write_accesses                       0                       # DTB write accesses
system.cpu.itb.data_hits                            0                       # DTB hits
system.cpu.itb.data_misses                          0                       # DTB misses
system.cpu.itb.data_acv                             0                       # DTB access violations
system.cpu.itb.data_accesses                        0                       # DTB accesses
system.cpu.workload.num_syscalls                   44                       # Number of system calls
system.cpu.pwrStateResidencyTicks::ON    1852280433432                       # Cumulative time (in ticks) in various power states
system.cpu.numCycles                              997                       # number of cpu cycles simulated
system.cpu.numWorkItemsStarted                      0                       # number of work items this cpu started
system.cpu.numWorkItemsCompleted                    0                       # number of work items this cpu completed
system.cpu.fetch.icacheStallCycles                 63                       # Number of cycles fetch is stalled on an Icache miss
system.cpu.fetch.Insts                             96                       # Number of instructions fetch has processed
system.cpu.fetch.Branches                           4                       # Number of branches that fetch encountered
[...]
system.switch_cpus_1.iq.int_inst_queue_wakeup_accesses    115353748                       # Number of integer instruction queue wakeup accesses
system.switch_cpus_1.iq.fp_inst_queue_reads    210537936                       # Number of floating instruction queue reads
system.switch_cpus_1.iq.fp_inst_queue_writes    113941249                       # Number of floating instruction queue writes
system.switch_cpus_1.iq.fp_inst_queue_wakeup_accesses    101072422                       # Number of floating instruction queue wakeup accesses
system.switch_cpus_1.iq.int_alu_accesses    119002217                       # Number of integer alu accesses
system.switch_cpus_1.iq.fp_alu_accesses     107690468                       # Number of floating point alu accesses
system.switch_cpus_1.iew.lsq.thread0.forwLoads       572298                       # Number of loads that had data forwarded from stores
system.switch_cpus_1.iew.lsq.thread0.invAddrLoads            0                       # Number of loads ignored due to an invalid address
system.switch_cpus_1.iew.lsq.thread0.squashedLoads      6583598                       # Number of loads squashed
system.switch_cpus_1.iew.lsq.thread0.ignoredResponses         8005                       # Number of memory responses ignored because the instruction is squashed
system.switch_cpus_1.iew.lsq.thread0.memOrderViolation         2229                       # Number of memory ordering violations
system.switch_cpus_1.iew.lsq.thread0.squashedStores       674864                       # Number of stores squashed
system.switch_cpus_1.iew.lsq.thread0.invAddrSwpfs            0                       # Number of software prefetches ignored due to an invalid address
system.switch_cpus_1.iew.lsq.thread0.blockedLoads            0                       # Number of blocked loads due to partial load-store forwarding
system.switch_cpus_1.iew.lsq.thread0.rescheduledLoads          156                       # Number of loads that were rescheduled
system.switch_cpus_1.iew.lsq.thread0.cacheBlocked      2090340                       # Number of times an access to memory failed due to the cache being blocked
system.switch_cpus_1.iew.iewIdleCycles              0                       # Number of cycles IEW is idle
system.switch_cpus_1.iew.iewSquashCycles       510853                       # Number of cycles IEW is squashing
system.switch_cpus_1.iew.iewBlockCycles     108053480                       # Number of cycles IEW is blocking
system.switch_cpus_1.iew.iewUnblockCycles     52963562                       # Number of cycles IEW is unblocking
system.switch_cpus_1.iew.iewDispatchedInsts    228286524                       # Number of instructions dispatched to IQ
system.switch_cpus_1.iew.iewDispSquashedInsts       324693                       # Number of squashed instructions skipped by dispatch
system.switch_cpus_1.iew.iewDispLoadInsts     49884695                       # Number of dispatched load instructions
system.switch_cpus_1.iew.iewDispStoreInsts      4057968                       # Number of dispatched store instructions
system.switch_cpus_1.iew.iewDispNonSpecInsts         3535                       # Number of dispatched non-speculative instructions
system.switch_cpus_1.iew.iewIQFullEvents       804696                       # Number of times the IQ has become full, causing a stall
system.switch_cpus_1.iew.iewLSQFullEvents     51632914                       # Number of times the LSQ has become full, causing a stall
system.switch_cpus_1.iew.memOrderViolationEvents         2229                       # Number of memory order violations
system.switch_cpus_1.iew.predictedTakenIncorrect       406814                       # Number of branches that were predicted taken incorrectly
system.switch_cpus_1.iew.predictedNotTakenIncorrect       105254                       # Number of branches that were predicted not taken incorrectly
system.switch_cpus_1.iew.branchMispredicts       512068                       # Number of branch mispredicts detected at execute
system.switch_cpus_1.iew.iewExecutedInsts    219903050                       # Number of executed instructions
system.switch_cpus_1.iew.iewExecLoadInsts     50344536                       # Number of load instructions executed
system.switch_cpus_1.iew.iewExecSquashedInsts      1008832                       # Number of squashed instructions skipped in execute
system.switch_cpus_1.iew.exec_swp                   0                       # number of swp insts executed
system.switch_cpus_1.iew.exec_nop             2132636                       # number of nop insts executed
system.switch_cpus_1.iew.exec_refs           54152723                       # number of memory reference insts executed
system.switch_cpus_1.iew.exec_branches       18041220                       # Number of branches executed
system.switch_cpus_1.iew.exec_stores          3808187                       # Number of stores executed
system.switch_cpus_1.iew.exec_rate           0.650028                       # Inst execution rate
system.switch_cpus_1.iew.wb_sent            217183325                       # cumulative count of insts sent to commit
system.switch_cpus_1.iew.wb_count           216426170                       # cumulative count of insts written-back
system.switch_cpus_1.iew.wb_producers       160215769                       # num instructions producing a value
system.switch_cpus_1.iew.wb_consumers       204373114                       # num instructions consuming a value
system.switch_cpus_1.iew.wb_rate             0.639751                       # insts written-back per cycle
system.switch_cpus_1.iew.wb_fanout           0.783938                       # average fanout of values written-back
system.switch_cpus_1.commit.commitSquashedInsts     25225392                       # The number of squashed insts skipped by commit
system.switch_cpus_1.commit.commitNonSpecStalls         4876                       # The number of times commit has been forced to stall to communicate backwards
system.switch_cpus_1.commit.branchMispredicts       437887                       # The number of times a branch was mispredicted
system.switch_cpus_1.commit.committed_per_cycle::samples    334309992                       # Number of insts commited each cycle
system.switch_cpus_1.commit.committed_per_cycle::mean     0.603294                       # Number of insts commited each cycle
system.switch_cpus_1.commit.committed_per_cycle::stdev     1.952810                       # Number of insts commited each cycle
system.switch_cpus_1.commit.committed_per_cycle::underflows            0      0.00%      0.00% # Number of insts commited each cycle
system.switch_cpus_1.commit.committed_per_cycle::0    297109729     88.87%     88.87% # Number of insts commited each cycle
system.switch_cpus_1.commit.committed_per_cycle::1      6782966      2.03%     90.90% # Number of insts commited each cycle
system.switch_cpus_1.commit.committed_per_cycle::2      3527535      1.06%     91.96% # Number of insts commited each cycle
system.switch_cpus_1.commit.committed_per_cycle::3      1373266      0.41%     92.37% # Number of insts commited each cycle
system.switch_cpus_1.commit.committed_per_cycle::4      1742621      0.52%     92.89% # Number of insts commited each cycle
system.switch_cpus_1.commit.committed_per_cycle::5      1124933      0.34%     93.23% # Number of insts commited each cycle
system.switch_cpus_1.commit.committed_per_cycle::6      4311843      1.29%     94.51% # Number of insts commited each cycle
system.switch_cpus_1.commit.committed_per_cycle::7      1433469      0.43%     94.94% # Number of insts commited each cycle
system.switch_cpus_1.commit.committed_per_cycle::8     16903630      5.06%    100.00% # Number of insts commited each cycle
system.switch_cpus_1.commit.committed_per_cycle::overflows            0      0.00%    100.00% # Number of insts commited each cycle
system.switch_cpus_1.commit.committed_per_cycle::min_value            0                       # Number of insts commited each cycle
system.switch_cpus_1.commit.committed_per_cycle::max_value            8                       # Number of insts commited each cycle
system.switch_cpus_1.commit.committed_per_cycle::total    334309992                       # Number of insts commited each cycle
system.switch_cpus_1.commit.committedInsts    201687364                       # Number of instructions committed
system.switch_cpus_1.commit.committedOps    201687364                       # Number of ops (including micro ops) committed
system.switch_cpus_1.commit.swp_count               0                       # Number of s/w prefetches committed
system.switch_cpus_1.commit.refs             46684198                       # Number of memory references committed
system.switch_cpus_1.commit.loads            43301094                       # Number of loads committed
system.switch_cpus_1.commit.membars              2438                       # Number of memory barriers committed
system.switch_cpus_1.commit.branches         16053531                       # Number of branches committed
system.switch_cpus_1.commit.fp_insts         97819303                       # Number of committed floating point instructions.
system.switch_cpus_1.commit.int_insts       136497010                       # Number of committed integer instructions.
system.switch_cpus_1.commit.function_calls       279259                       # Number of function calls committed.
system.switch_cpus_1.commit.op_class_0::No_OpClass      1687643      0.84%      0.84% # Class of committed instruction
system.switch_cpus_1.commit.op_class_0::IntAlu     89863699     44.56%     45.39% # Class of committed instruction
system.switch_cpus_1.commit.op_class_0::IntMult          759      0.00%     45.39% # Class of committed instruction
system.switch_cpus_1.commit.op_class_0::IntDiv            0      0.00%     45.39% # Class of committed instruction
system.switch_cpus_1.commit.op_class_0::FloatAdd     37891739     18.79%     64.18% # Class of committed instruction
system.switch_cpus_1.commit.op_class_0::FloatCmp       635720      0.32%     64.50% # Class of committed instruction
system.switch_cpus_1.commit.op_class_0::FloatCvt       230023      0.11%     64.61% # Class of committed instruction
system.switch_cpus_1.commit.op_class_0::FloatMult     24664631     12.23%     76.84% # Class of committed instruction
system.switch_cpus_1.commit.op_class_0::FloatMultAcc            0      0.00%     76.84% # Class of committed instruction
system.switch_cpus_1.commit.op_class_0::FloatDiv        26514      0.01%     76.85% # Class of committed instruction
system.switch_cpus_1.commit.op_class_0::FloatMisc            0      0.00%     76.85% # Class of committed instruction
system.switch_cpus_1.commit.op_class_0::FloatSqrt            0      0.00%     76.85% # Class of committed instruction
system.switch_cpus_1.commit.op_class_0::SimdAdd            0      0.00%     76.85% # Class of committed instruction
system.switch_cpus_1.commit.op_class_0::SimdAddAcc            0      0.00%     76.85% # Class of committed instruction
system.switch_cpus_1.commit.op_class_0::SimdAlu            0      0.00%     76.85% # Class of committed instruction
system.switch_cpus_1.commit.op_class_0::SimdCmp            0      0.00%     76.85% # Class of committed instruction
system.switch_cpus_1.commit.op_class_0::SimdCvt            0      0.00%     76.85% # Class of committed instruction
system.switch_cpus_1.commit.op_class_0::SimdMisc            0      0.00%     76.85% # Class of committed instruction
system.switch_cpus_1.commit.op_class_0::SimdMult            0      0.00%     76.85% # Class of committed instruction
system.switch_cpus_1.commit.op_class_0::SimdMultAcc            0      0.00%     76.85% # Class of committed instruction
system.switch_cpus_1.commit.op_class_0::SimdShift            0      0.00%     76.85% # Class of committed instruction
system.switch_cpus_1.commit.op_class_0::SimdShiftAcc            0      0.00%     76.85% # Class of committed instruction
system.switch_cpus_1.commit.op_class_0::SimdSqrt            0      0.00%     76.85% # Class of committed instruction
system.switch_cpus_1.commit.op_class_0::SimdFloatAdd            0      0.00%     76.85% # Class of committed instruction
system.switch_cpus_1.commit.op_class_0::SimdFloatAlu            0      0.00%     76.85% # Class of committed instruction
system.switch_cpus_1.commit.op_class_0::SimdFloatCmp            0      0.00%     76.85% # Class of committed instruction
system.switch_cpus_1.commit.op_class_0::SimdFloatCvt            0      0.00%     76.85% # Class of committed instruction
system.switch_cpus_1.commit.op_class_0::SimdFloatDiv            0      0.00%     76.85% # Class of committed instruction
system.switch_cpus_1.commit.op_class_0::SimdFloatMisc            0      0.00%     76.85% # Class of committed instruction
system.switch_cpus_1.commit.op_class_0::SimdFloatMult            0      0.00%     76.85% # Class of committed instruction
system.switch_cpus_1.commit.op_class_0::SimdFloatMultAcc            0      0.00%     76.85% # Class of committed instruction
system.switch_cpus_1.commit.op_class_0::SimdFloatSqrt            0      0.00%     76.85% # Class of committed instruction
system.switch_cpus_1.commit.op_class_0::MemRead      9751532      4.83%     81.69% # Class of committed instruction
system.switch_cpus_1.commit.op_class_0::MemWrite      2564428      1.27%     82.96% # Class of committed instruction
system.switch_cpus_1.commit.op_class_0::FloatMemRead     33552000     16.64%     99.59% # Class of committed instruction
system.switch_cpus_1.commit.op_class_0::FloatMemWrite       818676      0.41%    100.00% # Class of committed instruction
system.switch_cpus_1.commit.op_class_0::IprAccess            0      0.00%    100.00% # Class of committed instruction
system.switch_cpus_1.commit.op_class_0::InstPrefetch            0      0.00%    100.00% # Class of committed instruction
system.switch_cpus_1.commit.op_class_0::total    201687364                       # Class of committed instruction
system.switch_cpus_1.commit.bw_lim_events     16903630                       # number cycles where commit BW limit reached
system.switch_cpus_1.rob.rob_reads          543394935                       # The number of ROB reads
system.switch_cpus_1.rob.rob_writes         457254016                       # The number of ROB writes
system.switch_cpus_1.timesIdled                  2429                       # Number of times that the entire CPU went into an idle state and unscheduled itself
system.switch_cpus_1.idleCycles                561257                       # Total number of cycles that the CPU has spent unscheduled due to idling
system.switch_cpus_1.committedInsts         200000005                       # Number of Instructions Simulated
system.switch_cpus_1.committedOps           200000005                       # Number of Ops (including micro ops) Simulated
system.switch_cpus_1.cpi                     1.691488                       # CPI: Cycles Per Instruction
system.switch_cpus_1.cpi_total               1.691488                       # CPI: Total CPI of All Threads
system.switch_cpus_1.ipc                     0.591195                       # IPC: Instructions Per Cycle
system.switch_cpus_1.ipc_total               0.591195                       # IPC: Total IPC of All Threads
system.switch_cpus_1.int_regfile_reads      218055088                       # number of integer regfile reads
system.switch_cpus_1.int_regfile_writes      95014391                       # number of integer regfile writes
system.switch_cpus_1.fp_regfile_reads       130231932                       # number of floating regfile reads
system.switch_cpus_1.fp_regfile_writes      100038230                       # number of floating regfile writes
system.switch_cpus_1.misc_regfile_reads        407263                       # number of misc regfile reads
system.switch_cpus_1.misc_regfile_writes         5018                       # number of misc regfile writes
system.tol3bus.snoop_filter.tot_requests     26332349                       # Total number of requests made to the snoop filter.
system.tol3bus.snoop_filter.hit_single_requests     13164912                       # Number of requests hitting in the snoop filter with a single holder of the requested data.
system.tol3bus.snoop_filter.hit_multi_requests            0                       # Number of requests hitting in the snoop filter with multiple (>1) holders of the requested data.
system.tol3bus.snoop_filter.tot_snoops           4788                       # Total number of snoops made to the snoop filter.
system.tol3bus.snoop_filter.hit_single_snoops         4788                       # Number of snoops hitting in the snoop filter with a single holder of the requested data.
system.tol3bus.snoop_filter.hit_multi_snoops            0                       # Number of snoops hitting in the snoop filter with multiple (>1) holders of the requested data.
system.tol3bus.pwrStateResidencyTicks::UNDEFINED 734804720987418                       # Cumulative time (in ticks) in various power states
system.tol3bus.trans_dist::ReadResp          12311851                       # Transaction distribution
system.tol3bus.trans_dist::WritebackDirty      1788489                       # Transaction distribution
system.tol3bus.trans_dist::CleanEvict        14323566                       # Transaction distribution
system.tol3bus.trans_dist::UpgradeReq              46                       # Transaction distribution
system.tol3bus.trans_dist::UpgradeResp             46                       # Transaction distribution
system.tol3bus.trans_dist::ReadExReq           855586                       # Transaction distribution
system.tol3bus.trans_dist::ReadExResp          855586                       # Transaction distribution
system.tol3bus.trans_dist::ReadSharedReq     12311851                       # Transaction distribution
system.tol3bus.pkt_count_system.cpu.l2.mem_side::system.l3.cpu_side     39499832                       # Packet count per connected master and slave (bytes)
system.tol3bus.pkt_size_system.cpu.l2.mem_side::system.l3.cpu_side    946648768                       # Cumulative packet size per connected master and slave (bytes)
system.tol3bus.snoops                         2947189                       # Total snoops (count)
system.tol3bus.snoopTraffic                  10530496                       # Total snoop traffic (bytes)
system.tol3bus.snoop_fanout::samples         16114672                       # Request fanout histogram
system.tol3bus.snoop_fanout::mean            0.000297                       # Request fanout histogram
system.tol3bus.snoop_fanout::stdev           0.017235                       # Request fanout histogram
system.tol3bus.snoop_fanout::underflows             0      0.00%      0.00% # Request fanout histogram
system.tol3bus.snoop_fanout::0               16109884     99.97%     99.97% # Request fanout histogram
system.tol3bus.snoop_fanout::1                   4788      0.03%    100.00% # Request fanout histogram
system.tol3bus.snoop_fanout::overflows              0      0.00%    100.00% # Request fanout histogram
system.tol3bus.snoop_fanout::min_value              0                       # Request fanout histogram
system.tol3bus.snoop_fanout::max_value              1                       # Request fanout histogram
system.tol3bus.snoop_fanout::total           16114672                       # Request fanout histogram
system.tol3bus.reqLayer0.occupancy         9309447567                       # Layer occupancy (ticks)
system.tol3bus.reqLayer0.utilization              0.5                       # Layer utilization (%)
system.tol3bus.respLayer0.occupancy        8769528360                       # Layer occupancy (ticks)
system.tol3bus.respLayer0.utilization             0.5                       # Layer utilization (%)

---------- End Simulation Statistics   ----------
