
---------- Begin Simulation Statistics ----------
sim_seconds                                  1.964663                       # Number of seconds simulated
sim_ticks                                1964662605432                       # Number of ticks simulated
final_tick                               734917103159418                       # Number of ticks from beginning of simulation (restored from checkpoints and never reset)
sim_freq                                 1000000000000                       # Frequency of simulated ticks
host_inst_rate                                 318875                       # Simulator instruction rate (inst/s)
host_op_rate                                   318875                       # Simulator op (including micro ops) rate (op/s)
host_tick_rate                              417654085                       # Simulator tick rate (ticks/s)
host_mem_usage                                2391136                       # Number of bytes of host memory used
host_seconds                                  4704.04                       # Real time elapsed on the host
sim_insts                                  1500000012                       # Number of instructions simulated
sim_ops                                    1500000012                       # Number of ops (including micro ops) simulated
system.voltage_domain.voltage                       1                       # Voltage in Volts
system.clk_domain.clock                          1000                       # Clock period in ticks
system.mem_ctrls0.pwrStateResidencyTicks::UNDEFINED 734917103159418                       # Cumulative time (in ticks) in various power states
system.mem_ctrls0.bytes_read::cpu.inst            128                       # Number of bytes read from this memory
system.mem_ctrls0.bytes_read::cpu.data            128                       # Number of bytes read from this memory
system.mem_ctrls0.bytes_read::switch_cpus.inst       202304                       # Number of bytes read from this memory
system.mem_ctrls0.bytes_read::switch_cpus.data     54491264                       # Number of bytes read from this memory
system.mem_ctrls0.bytes_read::switch_cpus_1.inst       108288                       # Number of bytes read from this memory
system.mem_ctrls0.bytes_read::switch_cpus_1.data     53669440                       # Number of bytes read from this memory
system.mem_ctrls0.bytes_read::total         108471552                       # Number of bytes read from this memory
system.mem_ctrls0.bytes_inst_read::cpu.inst          128                       # Number of instructions bytes read from this memory
system.mem_ctrls0.bytes_inst_read::switch_cpus.inst       202304                       # Number of instructions bytes read from this memory
system.mem_ctrls0.bytes_inst_read::switch_cpus_1.inst       108288                       # Number of instructions bytes read from this memory
system.mem_ctrls0.bytes_inst_read::total       310720                       # Number of instructions bytes read from this memory
system.mem_ctrls0.bytes_written::writebacks      7190976                       # Number of bytes written to this memory
system.mem_ctrls0.bytes_written::total        7190976                       # Number of bytes written to this memory
system.mem_ctrls0.num_reads::cpu.inst               2                       # Number of read requests responded to by this memory
system.mem_ctrls0.num_reads::cpu.data               2                       # Number of read requests responded to by this memory
system.mem_ctrls0.num_reads::switch_cpus.inst         3161                       # Number of read requests responded to by this memory
system.mem_ctrls0.num_reads::switch_cpus.data       851426                       # Number of read requests responded to by this memory
system.mem_ctrls0.num_reads::switch_cpus_1.inst         1692                       # Number of read requests responded to by this memory
system.mem_ctrls0.num_reads::switch_cpus_1.data       838585                       # Number of read requests responded to by this memory
system.mem_ctrls0.num_reads::total            1694868                       # Number of read requests responded to by this memory
system.mem_ctrls0.num_writes::writebacks       112359                       # Number of write requests responded to by this memory
system.mem_ctrls0.num_writes::total            112359                       # Number of write requests responded to by this memory
system.mem_ctrls0.bw_read::cpu.inst                65                       # Total read bandwidth from this memory (bytes/s)
system.mem_ctrls0.bw_read::cpu.data                65                       # Total read bandwidth from this memory (bytes/s)
system.mem_ctrls0.bw_read::switch_cpus.inst       102971                       # Total read bandwidth from this memory (bytes/s)
system.mem_ctrls0.bw_read::switch_cpus.data     27735685                       # Total read bandwidth from this memory (bytes/s)
system.mem_ctrls0.bw_read::switch_cpus_1.inst        55118                       # Total read bandwidth from this memory (bytes/s)
system.mem_ctrls0.bw_read::switch_cpus_1.data     27317383                       # Total read bandwidth from this memory (bytes/s)
system.mem_ctrls0.bw_read::total             55211288                       # Total read bandwidth from this memory (bytes/s)
system.mem_ctrls0.bw_inst_read::cpu.inst           65                       # Instruction read bandwidth from this memory (bytes/s)
system.mem_ctrls0.bw_inst_read::switch_cpus.inst       102971                       # Instruction read bandwidth from this memory (bytes/s)
system.mem_ctrls0.bw_inst_read::switch_cpus_1.inst        55118                       # Instruction read bandwidth from this memory (bytes/s)
system.mem_ctrls0.bw_inst_read::total          158154                       # Instruction read bandwidth from this memory (bytes/s)
system.mem_ctrls0.bw_write::writebacks        3660158                       # Write bandwidth from this memory (bytes/s)
system.mem_ctrls0.bw_write::total             3660158                       # Write bandwidth from this memory (bytes/s)
system.mem_ctrls0.bw_total::writebacks        3660158                       # Total bandwidth to/from this memory (bytes/s)
system.mem_ctrls0.bw_total::cpu.inst               65                       # Total bandwidth to/from this memory (bytes/s)
system.mem_ctrls0.bw_total::cpu.data               65                       # Total bandwidth to/from this memory (bytes/s)
system.mem_ctrls0.bw_total::switch_cpus.inst       102971                       # Total bandwidth to/from this memory (bytes/s)
system.mem_ctrls0.bw_total::switch_cpus.data     27735685                       # Total bandwidth to/from this memory (bytes/s)
system.mem_ctrls0.bw_total::switch_cpus_1.inst        55118                       # Total bandwidth to/from this memory (bytes/s)
system.mem_ctrls0.bw_total::switch_cpus_1.data     27317383                       # Total bandwidth to/from this memory (bytes/s)
system.mem_ctrls0.bw_total::total            58871446                       # Total bandwidth to/from this memory (bytes/s)
system.mem_ctrls0.readReqs                    1694868                       # Number of read requests accepted
system.mem_ctrls0.writeReqs                    112359                       # Number of write requests accepted
system.mem_ctrls0.readBursts                  1694868                       # Number of DRAM read bursts, including those serviced by the write queue
system.mem_ctrls0.writeBursts                  112359                       # Number of DRAM write bursts, including those merged in the write queue
system.mem_ctrls0.bytesReadDRAM             107948992                       # Total number of bytes read from DRAM
system.mem_ctrls0.bytesReadWrQ                 522560                       # Total number of bytes read from write queue
system.mem_ctrls0.bytesWritten                7179136                       # Total number of bytes written to DRAM
system.mem_ctrls0.bytesReadSys              108471552                       # Total read bytes from the system interface side
system.mem_ctrls0.bytesWrittenSys             7190976                       # Total written bytes from the system interface side
system.mem_ctrls0.servicedByWrQ                  8165                       # Number of DRAM read bursts serviced by the write queue
system.mem_ctrls0.mergedWrBursts                  157                       # Number of DRAM write bursts merged with an existing one
system.mem_ctrls0.neitherReadNorWriteReqs            0                       # Number of requests that are neither read nor write
system.mem_ctrls0.perBankRdBursts::0           134119                       # Per bank write bursts
system.mem_ctrls0.perBankRdBursts::1           142647                       # Per bank write bursts
system.mem_ctrls0.perBankRdBursts::2           128967                       # Per bank write bursts
system.mem_ctrls0.perBankRdBursts::3            86648                       # Per bank write bursts
system.mem_ctrls0.perBankRdBursts::4            98775                       # Per bank write bursts
system.mem_ctrls0.perBankRdBursts::5            83241                       # Per bank write bursts
system.mem_ctrls0.perBankRdBursts::6            72697                       # Per bank write bursts
system.mem_ctrls0.perBankRdBursts::7           131504                       # Per bank write bursts
system.mem_ctrls0.perBankRdBursts::8           121533                       # Per bank write bursts
system.mem_ctrls0.perBankRdBursts::9           122300                       # Per bank write bursts
system.mem_ctrls0.perBankRdBursts::10          108080                       # Per bank write bursts
system.mem_ctrls0.perBankRdBursts::11           74575                       # Per bank write bursts
system.mem_ctrls0.perBankRdBursts::12           95049                       # Per bank write bursts
system.mem_ctrls0.perBankRdBursts::13           87356                       # Per bank write bursts
system.mem_ctrls0.perBankRdBursts::14           69698                       # Per bank write bursts
system.mem_ctrls0.perBankRdBursts::15          129514                       # Per bank write bursts
system.mem_ctrls0.perBankWrBursts::0             9846                       # Per bank write bursts
system.mem_ctrls0.perBankWrBursts::1            10816                       # Per bank write bursts
system.mem_ctrls0.perBankWrBursts::2            10389                       # Per bank write bursts
system.mem_ctrls0.perBankWrBursts::3             5731                       # Per bank write bursts
system.mem_ctrls0.perBankWrBursts::4             5016                       # Per bank write bursts
system.mem_ctrls0.perBankWrBursts::5             4466                       # Per bank write bursts
system.mem_ctrls0.perBankWrBursts::6             2160                       # Per bank write bursts
system.mem_ctrls0.perBankWrBursts::7             2894                       # Per bank write bursts
system.mem_ctrls0.perBankWrBursts::8             2373                       # Per bank write bursts
system.mem_ctrls0.perBankWrBursts::9             6029                       # Per bank write bursts
system.mem_ctrls0.perBankWrBursts::10           10181                       # Per bank write bursts
system.mem_ctrls0.perBankWrBursts::11            7664                       # Per bank write bursts
system.mem_ctrls0.perBankWrBursts::12            9266                       # Per bank write bursts
system.mem_ctrls0.perBankWrBursts::13            8913                       # Per bank write bursts
system.mem_ctrls0.perBankWrBursts::14            6925                       # Per bank write bursts
system.mem_ctrls0.perBankWrBursts::15            9505                       # Per bank write bursts
system.mem_ctrls0.numRdRetry                        0                       # Number of times read queue was full causing retry
system.mem_ctrls0.numWrRetry                        0                       # Number of times write queue was full causing retry
system.mem_ctrls0.totGap                 1964643540849                       # Total gap between requests
system.mem_ctrls0.readPktSize::0                    0                       # Read request sizes (log2)
system.mem_ctrls0.readPktSize::1                    0                       # Read request sizes (log2)
system.mem_ctrls0.readPktSize::2                    0                       # Read request sizes (log2)
system.mem_ctrls0.readPktSize::3                    0                       # Read request sizes (log2)
system.mem_ctrls0.readPktSize::4                    0                       # Read request sizes (log2)
system.mem_ctrls0.readPktSize::5                    0                       # Read request sizes (log2)
system.mem_ctrls0.readPktSize::6              1694868                       # Read request sizes (log2)
system.mem_ctrls0.writePktSize::0                   0                       # Write request sizes (log2)
system.mem_ctrls0.writePktSize::1                   0                       # Write request sizes (log2)
system.mem_ctrls0.writePktSize::2                   0                       # Write request sizes (log2)
system.mem_ctrls0.writePktSize::3                   0                       # Write request sizes (log2)
system.mem_ctrls0.writePktSize::4                   0                       # Write request sizes (log2)
system.mem_ctrls0.writePktSize::5                   0                       # Write request sizes (log2)
system.mem_ctrls0.writePktSize::6              112359                       # Write request sizes (log2)
system.mem_ctrls0.rdQLenPdf::0                1501638                       # What read queue length does an incoming req see
system.mem_ctrls0.rdQLenPdf::1                 169983                       # What read queue length does an incoming req see
system.mem_ctrls0.rdQLenPdf::2                  14190                       # What read queue length does an incoming req see
system.mem_ctrls0.rdQLenPdf::3                    892                       # What read queue length does an incoming req see
system.mem_ctrls0.rdQLenPdf::4                      0                       # What read queue length does an incoming req see
system.mem_ctrls0.rdQLenPdf::5                      0                       # What read queue length does an incoming req see
system.mem_ctrls0.rdQLenPdf::6                      0                       # What read queue length does an incoming req see
system.mem_ctrls0.rdQLenPdf::7                      0                       # What read queue length does an incoming req see
system.mem_ctrls0.rdQLenPdf::8                      0                       # What read queue length does an incoming req see
system.mem_ctrls0.rdQLenPdf::9                      0                       # What read queue length does an incoming req see
system.mem_ctrls0.rdQLenPdf::10                     0                       # What read queue length does an incoming req see
system.mem_ctrls0.rdQLenPdf::11                     0                       # What read queue length does an incoming req see
system.mem_ctrls0.rdQLenPdf::12                     0                       # What read queue length does an incoming req see
system.mem_ctrls0.rdQLenPdf::13                     0                       # What read queue length does an incoming req see
system.mem_ctrls0.rdQLenPdf::14                     0                       # What read queue length does an incoming req see
system.mem_ctrls0.rdQLenPdf::15                     0                       # What read queue length does an incoming req see
system.mem_ctrls0.rdQLenPdf::16                     0                       # What read queue length does an incoming req see
system.mem_ctrls0.rdQLenPdf::17                     0                       # What read queue length does an incoming req see
system.mem_ctrls0.rdQLenPdf::18                     0                       # What read queue length does an incoming req see
system.mem_ctrls0.rdQLenPdf::19                     0                       # What read queue length does an incoming req see
system.mem_ctrls0.rdQLenPdf::20                     0                       # What read queue length does an incoming req see
system.mem_ctrls0.rdQLenPdf::21                     0                       # What read queue length does an incoming req see
system.mem_ctrls0.rdQLenPdf::22                     0                       # What read queue length does an incoming req see
system.mem_ctrls0.rdQLenPdf::23                     0                       # What read queue length does an incoming req see
system.mem_ctrls0.rdQLenPdf::24                     0                       # What read queue length does an incoming req see
system.mem_ctrls0.rdQLenPdf::25                     0                       # What read queue length does an incoming req see
system.mem_ctrls0.rdQLenPdf::26                     0                       # What read queue length does an incoming req see
system.mem_ctrls0.rdQLenPdf::27                     0                       # What read queue length does an incoming req see
system.mem_ctrls0.rdQLenPdf::28                     0                       # What read queue length does an incoming req see
system.mem_ctrls0.rdQLenPdf::29                     0                       # What read queue length does an incoming req see
system.mem_ctrls0.rdQLenPdf::30                     0                       # What read queue length does an incoming req see
system.mem_ctrls0.rdQLenPdf::31                     0                       # What read queue length does an incoming req see
system.mem_ctrls0.wrQLenPdf::0                      2                       # What write queue length does an incoming req see
system.mem_ctrls0.wrQLenPdf::1                      2                       # What write queue length does an incoming req see
system.mem_ctrls0.wrQLenPdf::2                      2                       # What write queue length does an incoming req see
system.mem_ctrls0.wrQLenPdf::3                      2                       # What write queue length does an incoming req see
system.mem_ctrls0.wrQLenPdf::4                      2                       # What write queue length does an incoming req see
system.mem_ctrls0.wrQLenPdf::5                      2                       # What write queue length does an incoming req see
system.mem_ctrls0.wrQLenPdf::6                      2                       # What write queue length does an incoming req see
system.mem_ctrls0.wrQLenPdf::7                      2                       # What write queue length does an incoming req see
system.mem_ctrls0.wrQLenPdf::8                      2                       # What write queue length does an incoming req see
system.mem_ctrls0.wrQLenPdf::9                      2                       # What write queue length does an incoming req see
system.mem_ctrls0.wrQLenPdf::10                     2                       # What write queue length does an incoming req see
system.mem_ctrls0.wrQLenPdf::11                     2                       # What write queue length does an incoming req see
system.mem_ctrls0.wrQLenPdf::12                     2                       # What write queue length does an incoming req see
system.mem_ctrls0.wrQLenPdf::13                     2                       # What write queue length does an incoming req see
system.mem_ctrls0.wrQLenPdf::14                     2                       # What write queue length does an incoming req see
system.mem_ctrls0.wrQLenPdf::15                  5854                       # What write queue length does an incoming req see
system.mem_ctrls0.wrQLenPdf::16                  5898                       # What write queue length does an incoming req see
system.mem_ctrls0.wrQLenPdf::17                  6266                       # What write queue length does an incoming req see
system.mem_ctrls0.wrQLenPdf::18                  6274                       # What write queue length does an incoming req see
system.mem_ctrls0.wrQLenPdf::19                  6277                       # What write queue length does an incoming req see
system.mem_ctrls0.wrQLenPdf::20                  6275                       # What write queue length does an incoming req see
system.mem_ctrls0.wrQLenPdf::21                  6277                       # What write queue length does an incoming req see
system.mem_ctrls0.wrQLenPdf::22                  6273                       # What write queue length does an incoming req see
system.mem_ctrls0.wrQLenPdf::23                  6273                       # What write queue length does an incoming req see
system.mem_ctrls0.wrQLenPdf::24                  6276                       # What write queue length does an incoming req see
system.mem_ctrls0.wrQLenPdf::25                  6276                       # What write queue length does an incoming req see
system.mem_ctrls0.wrQLenPdf::26                  6273                       # What write queue length does an incoming req see
system.mem_ctrls0.wrQLenPdf::27                  6279                       # What write queue length does an incoming req see
system.mem_ctrls0.wrQLenPdf::28                  6273                       # What write queue length does an incoming req see
system.mem_ctrls0.wrQLenPdf::29                  6278                       # What write queue length does an incoming req see
system.mem_ctrls0.wrQLenPdf::30                  6303                       # What write queue length does an incoming req see
system.mem_ctrls0.wrQLenPdf::31                  6274                       # What write queue length does an incoming req see
system.mem_ctrls0.wrQLenPdf::32                  6270                       # What write queue length does an incoming req see
system.mem_ctrls0.wrQLenPdf::33                     3                       # What write queue length does an incoming req see
system.mem_ctrls0.wrQLenPdf::34                     0                       # What write queue length does an incoming req see
system.mem_ctrls0.wrQLenPdf::35                     0                       # What write queue length does an incoming req see
system.mem_ctrls0.wrQLenPdf::36                     0                       # What write queue length does an incoming req see
system.mem_ctrls0.wrQLenPdf::37                     0                       # What write queue length does an incoming req see
system.mem_ctrls0.wrQLenPdf::38                     0                       # What write queue length does an incoming req see
system.mem_ctrls0.wrQLenPdf::39                     0                       # What write queue length does an incoming req see
system.mem_ctrls0.wrQLenPdf::40                     0                       # What write queue length does an incoming req see
system.mem_ctrls0.wrQLenPdf::41                     0                       # What write queue length does an incoming req see
system.mem_ctrls0.wrQLenPdf::42                     0                       # What write queue length does an incoming req see
system.mem_ctrls0.wrQLenPdf::43                     0                       # What write queue length does an incoming req see
system.mem_ctrls0.wrQLenPdf::44                     0                       # What write queue length does an incoming req see
system.mem_ctrls0.wrQLenPdf::45                     0                       # What write queue length does an incoming req see
system.mem_ctrls0.wrQLenPdf::46                     0                       # What write queue length does an incoming req see
system.mem_ctrls0.wrQLenPdf::47                     0                       # What write queue length does an incoming req see
system.mem_ctrls0.wrQLenPdf::48                     0                       # What write queue length does an incoming req see
system.mem_ctrls0.wrQLenPdf::49                     0                       # What write queue length does an incoming req see
system.mem_ctrls0.wrQLenPdf::50                     0                       # What write queue length does an incoming req see
system.mem_ctrls0.wrQLenPdf::51                     0                       # What write queue length does an incoming req see
system.mem_ctrls0.wrQLenPdf::52                     0                       # What write queue length does an incoming req see
system.mem_ctrls0.wrQLenPdf::53                     0                       # What write queue length does an incoming req see
system.mem_ctrls0.wrQLenPdf::54                     0                       # What write queue length does an incoming req see
system.mem_ctrls0.wrQLenPdf::55                     0                       # What write queue length does an incoming req see
system.mem_ctrls0.wrQLenPdf::56                     0                       # What write queue length does an incoming req see
system.mem_ctrls0.wrQLenPdf::57                     0                       # What write queue length does an incoming req see
system.mem_ctrls0.wrQLenPdf::58                     0                       # What write queue length does an incoming req see
system.mem_ctrls0.wrQLenPdf::59                     0                       # What write queue length does an incoming req see
system.mem_ctrls0.wrQLenPdf::60                     0                       # What write queue length does an incoming req see
system.mem_ctrls0.wrQLenPdf::61                     0                       # What write queue length does an incoming req see
system.mem_ctrls0.wrQLenPdf::62                     0                       # What write queue length does an incoming req see
system.mem_ctrls0.wrQLenPdf::63                     0                       # What write queue length does an incoming req see
system.mem_ctrls0.bytesPerActivate::samples       644047                       # Bytes accessed per row activation
system.mem_ctrls0.bytesPerActivate::mean   178.757339                       # Bytes accessed per row activation
system.mem_ctrls0.bytesPerActivate::gmean   122.602902                       # Bytes accessed per row activation
system.mem_ctrls0.bytesPerActivate::stdev   195.237913                       # Bytes accessed per row activation
system.mem_ctrls0.bytesPerActivate::0-127       331007     51.39%     51.39% # Bytes accessed per row activation
system.mem_ctrls0.bytesPerActivate::128-255       157735     24.49%     75.89% # Bytes accessed per row activation
system.mem_ctrls0.bytesPerActivate::256-383        71116     11.04%     86.93% # Bytes accessed per row activation
system.mem_ctrls0.bytesPerActivate::384-511        39711      6.17%     93.09% # Bytes accessed per row activation
system.mem_ctrls0.bytesPerActivate::512-639        14232      2.21%     95.30% # Bytes accessed per row activation
system.mem_ctrls0.bytesPerActivate::640-767         7682      1.19%     96.50% # Bytes accessed per row activation
system.mem_ctrls0.bytesPerActivate::768-895         6113      0.95%     97.45% # Bytes accessed per row activation
system.mem_ctrls0.bytesPerActivate::896-1023         5509      0.86%     98.30% # Bytes accessed per row activation
system.mem_ctrls0.bytesPerActivate::1024-1151        10942      1.70%    100.00% # Bytes accessed per row activation
system.mem_ctrls0.bytesPerActivate::total       644047                       # Bytes accessed per row activation
system.mem_ctrls0.rdPerTurnAround::samples         6271                       # Reads before turning the bus around for writes
system.mem_ctrls0.rdPerTurnAround::mean    268.935895                       # Reads before turning the bus around for writes
system.mem_ctrls0.rdPerTurnAround::gmean   196.089047                       # Reads before turning the bus around for writes
system.mem_ctrls0.rdPerTurnAround::stdev   460.912597                       # Reads before turning the bus around for writes
system.mem_ctrls0.rdPerTurnAround::0-1023         6064     96.70%     96.70% # Reads before turning the bus around for writes
system.mem_ctrls0.rdPerTurnAround::1024-2047          190      3.03%     99.73% # Reads before turning the bus around for writes
system.mem_ctrls0.rdPerTurnAround::2048-3071           16      0.26%     99.98% # Reads before turning the bus around for writes
system.mem_ctrls0.rdPerTurnAround::29696-30719            1      0.02%    100.00% # Reads before turning the bus around for writes
system.mem_ctrls0.rdPerTurnAround::total         6271                       # Reads before turning the bus around for writes
system.mem_ctrls0.wrPerTurnAround::samples         6271                       # Writes before turning the bus around for reads
system.mem_ctrls0.wrPerTurnAround::mean     17.887737                       # Writes before turning the bus around for reads
system.mem_ctrls0.wrPerTurnAround::gmean    17.880053                       # Writes before turning the bus around for reads
system.mem_ctrls0.wrPerTurnAround::stdev     0.513450                       # Writes before turning the bus around for reads
system.mem_ctrls0.wrPerTurnAround::16             376      6.00%      6.00% # Writes before turning the bus around for reads
system.mem_ctrls0.wrPerTurnAround::17              42      0.67%      6.67% # Writes before turning the bus around for reads
system.mem_ctrls0.wrPerTurnAround::18            5775     92.09%     98.76% # Writes before turning the bus around for reads
system.mem_ctrls0.wrPerTurnAround::19              74      1.18%     99.94% # Writes before turning the bus around for reads
system.mem_ctrls0.wrPerTurnAround::20               3      0.05%     99.98% # Writes before turning the bus around for reads
system.mem_ctrls0.wrPerTurnAround::28               1      0.02%    100.00% # Writes before turning the bus around for reads
system.mem_ctrls0.wrPerTurnAround::total         6271                       # Writes before turning the bus around for reads
system.mem_ctrls0.totQLat                 52372909587                       # Total ticks spent queuing
system.mem_ctrls0.totMemAccLat            83998590837                       # Total ticks spent from burst creation until serviced by the DRAM
system.mem_ctrls0.totBusLat                8433515000                       # Total ticks spent in databus transfers
system.mem_ctrls0.avgQLat                    31050.46                       # Average queueing delay per DRAM burst
system.mem_ctrls0.avgBusLat                   5000.00                       # Average bus latency per DRAM burst
system.mem_ctrls0.avgMemAccLat               49800.46                       # Average memory access latency per DRAM burst
system.mem_ctrls0.avgRdBW                       54.95                       # Average DRAM read bandwidth in MiByte/s
system.mem_ctrls0.avgWrBW                        3.65                       # Average achieved write bandwidth in MiByte/s
system.mem_ctrls0.avgRdBWSys                    55.21                       # Average system read bandwidth in MiByte/s
system.mem_ctrls0.avgWrBWSys                     3.66                       # Average system write bandwidth in MiByte/s
system.mem_ctrls0.peakBW                     12800.00                       # Theoretical peak bandwidth in MiByte/s
system.mem_ctrls0.busUtil                        0.46                       # Data bus utilization in percentage
system.mem_ctrls0.busUtilRead                    0.43                       # Data bus utilization in percentage for reads
system.mem_ctrls0.busUtilWrite                   0.03                       # Data bus utilization in percentage for writes
system.mem_ctrls0.avgRdQLen                      1.03                       # Average read queue length when enqueuing
system.mem_ctrls0.avgWrQLen                     24.49                       # Average write queue length when enqueuing
system.mem_ctrls0.readRowHits                 1097579                       # Number of row buffer hits during reads
system.mem_ctrls0.writeRowHits                  57251                       # Number of row buffer hits during writes
system.mem_ctrls0.readRowHitRate                65.07                       # Row buffer hit rate for reads
system.mem_ctrls0.writeRowHitRate               51.02                       # Row buffer hit rate for writes
system.mem_ctrls0.avgGap                   1087103.91                       # Average gap between requests
system.mem_ctrls0.pageHitRate                   64.20                       # Row buffer hit rate, read and write combined
system.mem_ctrls0_0.actEnergy              2478436800                       # Energy for activate commands per rank (pJ)
system.mem_ctrls0_0.preEnergy              1317320400                       # Energy for precharge commands per rank (pJ)
system.mem_ctrls0_0.readEnergy             6273189720                       # Energy for read commands per rank (pJ)
system.mem_ctrls0_0.writeEnergy             267879960                       # Energy for write commands per rank (pJ)
system.mem_ctrls0_0.refreshEnergy        111453285840.000031                       # Energy for refresh commands per rank (pJ)
system.mem_ctrls0_0.actBackEnergy         35744743890                       # Energy for active background per rank (pJ)
system.mem_ctrls0_0.preBackEnergy          4481164800                       # Energy for precharge background per rank (pJ)
system.mem_ctrls0_0.actPowerDownEnergy   370077339300                       # Energy for active power-down per rank (pJ)
system.mem_ctrls0_0.prePowerDownEnergy   129330704160                       # Energy for precharge power-down per rank (pJ)
system.mem_ctrls0_0.selfRefreshEnergy    187518755385                       # Energy for self refresh per rank (pJ)
system.mem_ctrls0_0.totalEnergy          848984055705                       # Total energy per rank (pJ)
system.mem_ctrls0_0.averagePower           432.127149                       # Core power per rank (mW)
system.mem_ctrls0_0.totalIdleTime        1874329556547                       # Total Idle time Per DRAM Rank
system.mem_ctrls0_0.memoryStateTime::IDLE   7178319235                       # Time in different power states
system.mem_ctrls0_0.memoryStateTime::REF  47293216000                       # Time in different power states
system.mem_ctrls0_0.memoryStateTime::SREF 726141818682                       # Time in different power states
system.mem_ctrls0_0.memoryStateTime::PRE_PDN 336799433011                       # Time in different power states
system.mem_ctrls0_0.memoryStateTime::ACT  35674369317                       # Time in different power states
system.mem_ctrls0_0.memoryStateTime::ACT_PDN 811575449187                       # Time in different power states
system.mem_ctrls0_1.actEnergy              2120058780                       # Energy for activate commands per rank (pJ)
system.mem_ctrls0_1.preEnergy              1126837965                       # Energy for precharge commands per rank (pJ)
system.mem_ctrls0_1.readEnergy             5769869700                       # Energy for read commands per rank (pJ)
system.mem_ctrls0_1.writeEnergy             317668320                       # Energy for write commands per rank (pJ)
system.mem_ctrls0_1.refreshEnergy        104614801200.000031                       # Energy for refresh commands per rank (pJ)
system.mem_ctrls0_1.actBackEnergy         34397636100                       # Energy for active background per rank (pJ)
system.mem_ctrls0_1.preBackEnergy          4273620960                       # Energy for precharge background per rank (pJ)
system.mem_ctrls0_1.actPowerDownEnergy   342334903500                       # Energy for active power-down per rank (pJ)
system.mem_ctrls0_1.prePowerDownEnergy   122196271680                       # Energy for precharge power-down per rank (pJ)
system.mem_ctrls0_1.selfRefreshEnergy    207133862205                       # Energy for self refresh per rank (pJ)
system.mem_ctrls0_1.totalEnergy          824324447790                       # Total energy per rank (pJ)
system.mem_ctrls0_1.averagePower           419.575574                       # Core power per rank (mW)
system.mem_ctrls0_1.totalIdleTime        1878005229209                       # Total Idle time Per DRAM Rank
system.mem_ctrls0_1.memoryStateTime::IDLE   6930218537                       # Time in different power states
system.mem_ctrls0_1.memoryStateTime::REF  44397414000                       # Time in different power states
system.mem_ctrls0_1.memoryStateTime::SREF 809059506939                       # Time in different power states
system.mem_ctrls0_1.memoryStateTime::PRE_PDN 318219950115                       # Time in different power states
system.mem_ctrls0_1.memoryStateTime::ACT  35319620488                       # Time in different power states
system.mem_ctrls0_1.memoryStateTime::ACT_PDN 750735895353                       # Time in different power states
system.mem_ctrls1.pwrStateResidencyTicks::UNDEFINED 734917103159418                       # Cumulative time (in ticks) in various power states
system.mem_ctrls1.bytes_read::cpu.inst             64                       # Number of bytes read from this memory
system.mem_ctrls1.bytes_read::cpu.data            192                       # Number of bytes read from this memory
system.mem_ctrls1.bytes_read::switch_cpus.inst       193408                       # Number of bytes read from this memory
system.mem_ctrls1.bytes_read::switch_cpus.data     54366592                       # Number of bytes read from this memory
system.mem_ctrls1.bytes_read::switch_cpus_1.inst       102976                       # Number of bytes read from this memory
system.mem_ctrls1.bytes_read::switch_cpus_1.data     53572416                       # Number of bytes read from this memory
system.mem_ctrls1.bytes_read::total         108235648                       # Number of bytes read from this memory
system.mem_ctrls1.bytes_inst_read::cpu.inst           64                       # Number of instructions bytes read from this memory
system.mem_ctrls1.bytes_inst_read::switch_cpus.inst       193408                       # Number of instructions bytes read from this memory
system.mem_ctrls1.bytes_inst_read::switch_cpus_1.inst       102976                       # Number of instructions bytes read from this memory
system.mem_ctrls1.bytes_inst_read::total       296448                       # Number of instructions bytes read from this memory
system.mem_ctrls1.bytes_written::writebacks      7147840                       # Number of bytes written to this memory
system.mem_ctrls1.bytes_written::total        7147840                       # Number of bytes written to this memory
system.mem_ctrls1.num_reads::cpu.inst               1                       # Number of read requests responded to by this memory
system.mem_ctrls1.num_reads::cpu.data               3                       # Number of read requests responded to by this memory
system.mem_ctrls1.num_reads::switch_cpus.inst         3022                       # Number of read requests responded to by this memory
system.mem_ctrls1.num_reads::switch_cpus.data       849478                       # Number of read requests responded to by this memory
system.mem_ctrls1.num_reads::switch_cpus_1.inst         1609                       # Number of read requests responded to by this memory
system.mem_ctrls1.num_reads::switch_cpus_1.data       837069                       # Number of read requests responded to by this memory
system.mem_ctrls1.num_reads::total            1691182                       # Number of read requests responded to by this memory
system.mem_ctrls1.num_writes::writebacks       111685                       # Number of write requests responded to by this memory
system.mem_ctrls1.num_writes::total            111685                       # Number of write requests responded to by this memory
system.mem_ctrls1.bw_read::cpu.inst                33                       # Total read bandwidth from this memory (bytes/s)
system.mem_ctrls1.bw_read::cpu.data                98                       # Total read bandwidth from this memory (bytes/s)
system.mem_ctrls1.bw_read::switch_cpus.inst        98443                       # Total read bandwidth from this memory (bytes/s)
system.mem_ctrls1.bw_read::switch_cpus.data     27672228                       # Total read bandwidth from this memory (bytes/s)
system.mem_ctrls1.bw_read::switch_cpus_1.inst        52414                       # Total read bandwidth from this memory (bytes/s)
system.mem_ctrls1.bw_read::switch_cpus_1.data     27267998                       # Total read bandwidth from this memory (bytes/s)
system.mem_ctrls1.bw_read::total             55091214                       # Total read bandwidth from this memory (bytes/s)
system.mem_ctrls1.bw_inst_read::cpu.inst           33                       # Instruction read bandwidth from this memory (bytes/s)
system.mem_ctrls1.bw_inst_read::switch_cpus.inst        98443                       # Instruction read bandwidth from this memory (bytes/s)
system.mem_ctrls1.bw_inst_read::switch_cpus_1.inst        52414                       # Instruction read bandwidth from this memory (bytes/s)
system.mem_ctrls1.bw_inst_read::total          150890                       # Instruction read bandwidth from this memory (bytes/s)
system.mem_ctrls1.bw_write::writebacks        3638202                       # Write bandwidth from this memory (bytes/s)
system.mem_ctrls1.bw_write::total             3638202                       # Write bandwidth from this memory (bytes/s)
system.mem_ctrls1.bw_total::writebacks        3638202                       # Total bandwidth to/from this memory (bytes/s)
system.mem_ctrls1.bw_total::cpu.inst               33                       # Total bandwidth to/from this memory (bytes/s)
system.mem_ctrls1.bw_total::cpu.data               98                       # Total bandwidth to/from this memory (bytes/s)
system.mem_ctrls1.bw_total::switch_cpus.inst        98443                       # Total bandwidth to/from this memory (bytes/s)
system.mem_ctrls1.bw_total::switch_cpus.data     27672228                       # Total bandwidth to/from this memory (bytes/s)
system.mem_ctrls1.bw_total::switch_cpus_1.inst        52414                       # Total bandwidth to/from this memory (bytes/s)
system.mem_ctrls1.bw_total::switch_cpus_1.data     27267998                       # Total bandwidth to/from this memory (bytes/s)
system.mem_ctrls1.bw_total::total            58729416                       # Total bandwidth to/from this memory (bytes/s)
system.mem_ctrls1.readReqs                    1691182                       # Number of read requests accepted
system.mem_ctrls1.writeReqs                    111685                       # Number of write requests accepted
system.mem_ctrls1.readBursts                  1691182                       # Number of DRAM read bursts, including those serviced by the write queue
system.mem_ctrls1.writeBursts                  111685                       # Number of DRAM write bursts, including those merged in the write queue
system.mem_ctrls1.bytesReadDRAM             107719616                       # Total number of bytes read from DRAM
system.mem_ctrls1.bytesReadWrQ                 516032                       # Total number of bytes read from write queue
system.mem_ctrls1.bytesWritten                7136704                       # Total number of bytes written to DRAM
system.mem_ctrls1.bytesReadSys              108235648                       # Total read bytes from the system interface side
system.mem_ctrls1.bytesWrittenSys             7147840                       # Total written bytes from the system interface side
system.mem_ctrls1.servicedByWrQ                  8063                       # Number of DRAM read bursts serviced by the write queue
system.mem_ctrls1.mergedWrBursts                  158                       # Number of DRAM write bursts merged with an existing one
system.mem_ctrls1.neitherReadNorWriteReqs            0                       # Number of requests that are neither read nor write
system.mem_ctrls1.perBankRdBursts::0           134103                       # Per bank write bursts
system.mem_ctrls1.perBankRdBursts::1           142388                       # Per bank write bursts
system.mem_ctrls1.perBankRdBursts::2           128820                       # Per bank write bursts
system.mem_ctrls1.perBankRdBursts::3            87584                       # Per bank write bursts
system.mem_ctrls1.perBankRdBursts::4            98981                       # Per bank write bursts
system.mem_ctrls1.perBankRdBursts::5            82429                       # Per bank write bursts
system.mem_ctrls1.perBankRdBursts::6            72471                       # Per bank write bursts
system.mem_ctrls1.perBankRdBursts::7           130494                       # Per bank write bursts
system.mem_ctrls1.perBankRdBursts::8           120450                       # Per bank write bursts
system.mem_ctrls1.perBankRdBursts::9           121445                       # Per bank write bursts
system.mem_ctrls1.perBankRdBursts::10          107671                       # Per bank write bursts
system.mem_ctrls1.perBankRdBursts::11           75181                       # Per bank write bursts
system.mem_ctrls1.perBankRdBursts::12           95870                       # Per bank write bursts
system.mem_ctrls1.perBankRdBursts::13           87109                       # Per bank write bursts
system.mem_ctrls1.perBankRdBursts::14           69905                       # Per bank write bursts
system.mem_ctrls1.perBankRdBursts::15          128218                       # Per bank write bursts
system.mem_ctrls1.perBankWrBursts::0             9850                       # Per bank write bursts
system.mem_ctrls1.perBankWrBursts::1            10561                       # Per bank write bursts
system.mem_ctrls1.perBankWrBursts::2             9963                       # Per bank write bursts
system.mem_ctrls1.perBankWrBursts::3             5553                       # Per bank write bursts
system.mem_ctrls1.perBankWrBursts::4             4898                       # Per bank write bursts
system.mem_ctrls1.perBankWrBursts::5             4535                       # Per bank write bursts
system.mem_ctrls1.perBankWrBursts::6             2146                       # Per bank write bursts
system.mem_ctrls1.perBankWrBursts::7             2774                       # Per bank write bursts
system.mem_ctrls1.perBankWrBursts::8             2317                       # Per bank write bursts
system.mem_ctrls1.perBankWrBursts::9             6583                       # Per bank write bursts
system.mem_ctrls1.perBankWrBursts::10           10399                       # Per bank write bursts
system.mem_ctrls1.perBankWrBursts::11            7522                       # Per bank write bursts
system.mem_ctrls1.perBankWrBursts::12            9075                       # Per bank write bursts
system.mem_ctrls1.perBankWrBursts::13            8631                       # Per bank write bursts
system.mem_ctrls1.perBankWrBursts::14            7073                       # Per bank write bursts
system.mem_ctrls1.perBankWrBursts::15            9631                       # Per bank write bursts
system.mem_ctrls1.numRdRetry                        0                       # Number of times read queue was full causing retry
system.mem_ctrls1.numWrRetry                        0                       # Number of times write queue was full causing retry
system.mem_ctrls1.totGap                 1964643677712                       # Total gap between requests
system.mem_ctrls1.readPktSize::0                    0                       # Read request sizes (log2)
system.mem_ctrls1.readPktSize::1                    0                       # Read request sizes (log2)
system.mem_ctrls1.readPktSize::2                    0                       # Read request sizes (log2)
system.mem_ctrls1.readPktSize::3                    0                       # Read request sizes (log2)
system.mem_ctrls1.readPktSize::4                    0                       # Read request sizes (log2)
system.mem_ctrls1.readPktSize::5                    0                       # Read request sizes (log2)
system.mem_ctrls1.readPktSize::6              1691182                       # Read request sizes (log2)
system.mem_ctrls1.writePktSize::0                   0                       # Write request sizes (log2)
system.mem_ctrls1.writePktSize::1                   0                       # Write request sizes (log2)
system.mem_ctrls1.writePktSize::2                   0                       # Write request sizes (log2)
system.mem_ctrls1.writePktSize::3                   0                       # Write request sizes (log2)
system.mem_ctrls1.writePktSize::4                   0                       # Write request sizes (log2)
system.mem_ctrls1.writePktSize::5                   0                       # Write request sizes (log2)
system.mem_ctrls1.writePktSize::6              111685                       # Write request sizes (log2)
system.mem_ctrls1.rdQLenPdf::0                1496454                       # What read queue length does an incoming req see
system.mem_ctrls1.rdQLenPdf::1                 171944                       # What read queue length does an incoming req see
system.mem_ctrls1.rdQLenPdf::2                  13875                       # What read queue length does an incoming req see
system.mem_ctrls1.rdQLenPdf::3                    846                       # What read queue length does an incoming req see
system.mem_ctrls1.rdQLenPdf::4                      0                       # What read queue length does an incoming req see
system.mem_ctrls1.rdQLenPdf::5                      0                       # What read queue length does an incoming req see
system.mem_ctrls1.rdQLenPdf::6                      0                       # What read queue length does an incoming req see
system.mem_ctrls1.rdQLenPdf::7                      0                       # What read queue length does an incoming req see
system.mem_ctrls1.rdQLenPdf::8                      0                       # What read queue length does an incoming req see
system.mem_ctrls1.rdQLenPdf::9                      0                       # What read queue length does an incoming req see
system.mem_ctrls1.rdQLenPdf::10                     0                       # What read queue length does an incoming req see
system.mem_ctrls1.rdQLenPdf::11                     0                       # What read queue length does an incoming req see
system.mem_ctrls1.rdQLenPdf::12                     0                       # What read queue length does an incoming req see
system.mem_ctrls1.rdQLenPdf::13                     0                       # What read queue length does an incoming req see
system.mem_ctrls1.rdQLenPdf::14                     0                       # What read queue length does an incoming req see
system.mem_ctrls1.rdQLenPdf::15                     0                       # What read queue length does an incoming req see
system.mem_ctrls1.rdQLenPdf::16                     0                       # What read queue length does an incoming req see
system.mem_ctrls1.rdQLenPdf::17                     0                       # What read queue length does an incoming req see
system.mem_ctrls1.rdQLenPdf::18                     0                       # What read queue length does an incoming req see
system.mem_ctrls1.rdQLenPdf::19                     0                       # What read queue length does an incoming req see
system.mem_ctrls1.rdQLenPdf::20                     0                       # What read queue length does an incoming req see
system.mem_ctrls1.rdQLenPdf::21                     0                       # What read queue length does an incoming req see
system.mem_ctrls1.rdQLenPdf::22                     0                       # What read queue length does an incoming req see
system.mem_ctrls1.rdQLenPdf::23                     0                       # What read queue length does an incoming req see
system.mem_ctrls1.rdQLenPdf::24                     0                       # What read queue length does an incoming req see
system.mem_ctrls1.rdQLenPdf::25                     0                       # What read queue length does an incoming req see
system.mem_ctrls1.rdQLenPdf::26                     0                       # What read queue length does an incoming req see
system.mem_ctrls1.rdQLenPdf::27                     0                       # What read queue length does an incoming req see
system.mem_ctrls1.rdQLenPdf::28                     0                       # What read queue length does an incoming req see
system.mem_ctrls1.rdQLenPdf::29                     0                       # What read queue length does an incoming req see
system.mem_ctrls1.rdQLenPdf::30                     0                       # What read queue length does an incoming req see
system.mem_ctrls1.rdQLenPdf::31                     0                       # What read queue length does an incoming req see
system.mem_ctrls1.wrQLenPdf::0                      2                       # What write queue length does an incoming req see
system.mem_ctrls1.wrQLenPdf::1                      2                       # What write queue length does an incoming req see
system.mem_ctrls1.wrQLenPdf::2                      2                       # What write queue length does an incoming req see
system.mem_ctrls1.wrQLenPdf::3                      2                       # What write queue length does an incoming req see
system.mem_ctrls1.wrQLenPdf::4                      2                       # What write queue length does an incoming req see
system.mem_ctrls1.wrQLenPdf::5                      2                       # What write queue length does an incoming req see
system.mem_ctrls1.wrQLenPdf::6                      2                       # What write queue length does an incoming req see
system.mem_ctrls1.wrQLenPdf::7                      2                       # What write queue length does an incoming req see
system.mem_ctrls1.wrQLenPdf::8                      2                       # What write queue length does an incoming req see
system.mem_ctrls1.wrQLenPdf::9                      2                       # What write queue length does an incoming req see
system.mem_ctrls1.wrQLenPdf::10                     2                       # What write queue length does an incoming req see
system.mem_ctrls1.wrQLenPdf::11                     2                       # What write queue length does an incoming req see
system.mem_ctrls1.wrQLenPdf::12                     2                       # What write queue length does an incoming req see
system.mem_ctrls1.wrQLenPdf::13                     2                       # What write queue length does an incoming req see
system.mem_ctrls1.wrQLenPdf::14                     2                       # What write queue length does an incoming req see
system.mem_ctrls1.wrQLenPdf::15                  5810                       # What write queue length does an incoming req see
system.mem_ctrls1.wrQLenPdf::16                  5851                       # What write queue length does an incoming req see
system.mem_ctrls1.wrQLenPdf::17                  6234                       # What write queue length does an incoming req see
system.mem_ctrls1.wrQLenPdf::18                  6239                       # What write queue length does an incoming req see
system.mem_ctrls1.wrQLenPdf::19                  6239                       # What write queue length does an incoming req see
system.mem_ctrls1.wrQLenPdf::20                  6238                       # What write queue length does an incoming req see
system.mem_ctrls1.wrQLenPdf::21                  6241                       # What write queue length does an incoming req see
system.mem_ctrls1.wrQLenPdf::22                  6240                       # What write queue length does an incoming req see
system.mem_ctrls1.wrQLenPdf::23                  6238                       # What write queue length does an incoming req see
system.mem_ctrls1.wrQLenPdf::24                  6238                       # What write queue length does an incoming req see
system.mem_ctrls1.wrQLenPdf::25                  6237                       # What write queue length does an incoming req see
system.mem_ctrls1.wrQLenPdf::26                  6236                       # What write queue length does an incoming req see
system.mem_ctrls1.wrQLenPdf::27                  6240                       # What write queue length does an incoming req see
system.mem_ctrls1.wrQLenPdf::28                  6240                       # What write queue length does an incoming req see
system.mem_ctrls1.wrQLenPdf::29                  6241                       # What write queue length does an incoming req see
system.mem_ctrls1.wrQLenPdf::30                  6263                       # What write queue length does an incoming req see
system.mem_ctrls1.wrQLenPdf::31                  6236                       # What write queue length does an incoming req see
system.mem_ctrls1.wrQLenPdf::32                  6235                       # What write queue length does an incoming req see
system.mem_ctrls1.wrQLenPdf::33                     1                       # What write queue length does an incoming req see
system.mem_ctrls1.wrQLenPdf::34                     0                       # What write queue length does an incoming req see
system.mem_ctrls1.wrQLenPdf::35                     0                       # What write queue length does an incoming req see
system.mem_ctrls1.wrQLenPdf::36                     0                       # What write queue length does an incoming req see
system.mem_ctrls1.wrQLenPdf::37                     0                       # What write queue length does an incoming req see
system.mem_ctrls1.wrQLenPdf::38                     0                       # What write queue length does an incoming req see
system.mem_ctrls1.wrQLenPdf::39                     0                       # What write queue length does an incoming req see
system.mem_ctrls1.wrQLenPdf::40                     0                       # What write queue length does an incoming req see
system.mem_ctrls1.wrQLenPdf::41                     0                       # What write queue length does an incoming req see
system.mem_ctrls1.wrQLenPdf::42                     0                       # What write queue length does an incoming req see
system.mem_ctrls1.wrQLenPdf::43                     0                       # What write queue length does an incoming req see
system.mem_ctrls1.wrQLenPdf::44                     0                       # What write queue length does an incoming req see
system.mem_ctrls1.wrQLenPdf::45                     0                       # What write queue length does an incoming req see
system.mem_ctrls1.wrQLenPdf::46                     0                       # What write queue length does an incoming req see
system.mem_ctrls1.wrQLenPdf::47                     0                       # What write queue length does an incoming req see
system.mem_ctrls1.wrQLenPdf::48                     0                       # What write queue length does an incoming req see
system.mem_ctrls1.wrQLenPdf::49                     0                       # What write queue length does an incoming req see
system.mem_ctrls1.wrQLenPdf::50                     0                       # What write queue length does an incoming req see
system.mem_ctrls1.wrQLenPdf::51                     0                       # What write queue length does an incoming req see
system.mem_ctrls1.wrQLenPdf::52                     0                       # What write queue length does an incoming req see
system.mem_ctrls1.wrQLenPdf::53                     0                       # What write queue length does an incoming req see
system.mem_ctrls1.wrQLenPdf::54                     0                       # What write queue length does an incoming req see
system.mem_ctrls1.wrQLenPdf::55                     0                       # What write queue length does an incoming req see
system.mem_ctrls1.wrQLenPdf::56                     0                       # What write queue length does an incoming req see
system.mem_ctrls1.wrQLenPdf::57                     0                       # What write queue length does an incoming req see
system.mem_ctrls1.wrQLenPdf::58                     0                       # What write queue length does an incoming req see
system.mem_ctrls1.wrQLenPdf::59                     0                       # What write queue length does an incoming req see
system.mem_ctrls1.wrQLenPdf::60                     0                       # What write queue length does an incoming req see
system.mem_ctrls1.wrQLenPdf::61                     0                       # What write queue length does an incoming req see
system.mem_ctrls1.wrQLenPdf::62                     0                       # What write queue length does an incoming req see
system.mem_ctrls1.wrQLenPdf::63                     0                       # What write queue length does an incoming req see
system.mem_ctrls1.bytesPerActivate::samples       640906                       # Bytes accessed per row activation
system.mem_ctrls1.bytesPerActivate::mean   179.209307                       # Bytes accessed per row activation
system.mem_ctrls1.bytesPerActivate::gmean   122.881884                       # Bytes accessed per row activation
system.mem_ctrls1.bytesPerActivate::stdev   195.631474                       # Bytes accessed per row activation
system.mem_ctrls1.bytesPerActivate::0-127       328361     51.23%     51.23% # Bytes accessed per row activation
system.mem_ctrls1.bytesPerActivate::128-255       157419     24.56%     75.80% # Bytes accessed per row activation
system.mem_ctrls1.bytesPerActivate::256-383        70802     11.05%     86.84% # Bytes accessed per row activation
system.mem_ctrls1.bytesPerActivate::384-511        40125      6.26%     93.10% # Bytes accessed per row activation
system.mem_ctrls1.bytesPerActivate::512-639        14004      2.19%     95.29% # Bytes accessed per row activation
system.mem_ctrls1.bytesPerActivate::640-767         7499      1.17%     96.46% # Bytes accessed per row activation
system.mem_ctrls1.bytesPerActivate::768-895         6160      0.96%     97.42% # Bytes accessed per row activation
system.mem_ctrls1.bytesPerActivate::896-1023         5627      0.88%     98.30% # Bytes accessed per row activation
system.mem_ctrls1.bytesPerActivate::1024-1151        10909      1.70%    100.00% # Bytes accessed per row activation
system.mem_ctrls1.bytesPerActivate::total       640906                       # Bytes accessed per row activation
system.mem_ctrls1.rdPerTurnAround::samples         6236                       # Reads before turning the bus around for writes
system.mem_ctrls1.rdPerTurnAround::mean    269.892078                       # Reads before turning the bus around for writes
system.mem_ctrls1.rdPerTurnAround::gmean   195.985655                       # Reads before turning the bus around for writes
system.mem_ctrls1.rdPerTurnAround::stdev   462.295983                       # Reads before turning the bus around for writes
system.mem_ctrls1.rdPerTurnAround::0-1023         6041     96.87%     96.87% # Reads before turning the bus around for writes
system.mem_ctrls1.rdPerTurnAround::1024-2047          185      2.97%     99.84% # Reads before turning the bus around for writes
system.mem_ctrls1.rdPerTurnAround::2048-3071            9      0.14%     99.98% # Reads before turning the bus around for writes
system.mem_ctrls1.rdPerTurnAround::28672-29695            1      0.02%    100.00% # Reads before turning the bus around for writes
system.mem_ctrls1.rdPerTurnAround::total         6236                       # Reads before turning the bus around for writes
system.mem_ctrls1.wrPerTurnAround::samples         6236                       # Writes before turning the bus around for reads
system.mem_ctrls1.wrPerTurnAround::mean     17.881815                       # Writes before turning the bus around for reads
system.mem_ctrls1.wrPerTurnAround::gmean    17.874216                       # Writes before turning the bus around for reads
system.mem_ctrls1.wrPerTurnAround::stdev     0.505923                       # Writes before turning the bus around for reads
system.mem_ctrls1.wrPerTurnAround::16             388      6.22%      6.22% # Writes before turning the bus around for reads
system.mem_ctrls1.wrPerTurnAround::17              39      0.63%      6.85% # Writes before turning the bus around for reads
system.mem_ctrls1.wrPerTurnAround::18            5735     91.97%     98.81% # Writes before turning the bus around for reads
system.mem_ctrls1.wrPerTurnAround::19              72      1.15%     99.97% # Writes before turning the bus around for reads
system.mem_ctrls1.wrPerTurnAround::20               1      0.02%     99.98% # Writes before turning the bus around for reads
system.mem_ctrls1.wrPerTurnAround::22               1      0.02%    100.00% # Writes before turning the bus around for reads
system.mem_ctrls1.wrPerTurnAround::total         6236                       # Writes before turning the bus around for reads
system.mem_ctrls1.totQLat                 52608141350                       # Total ticks spent queuing
system.mem_ctrls1.totMemAccLat            84166622600                       # Total ticks spent from burst creation until serviced by the DRAM
system.mem_ctrls1.totBusLat                8415595000                       # Total ticks spent in databus transfers
system.mem_ctrls1.avgQLat                    31256.34                       # Average queueing delay per DRAM burst
system.mem_ctrls1.avgBusLat                   5000.00                       # Average bus latency per DRAM burst
system.mem_ctrls1.avgMemAccLat               50006.34                       # Average memory access latency per DRAM burst
system.mem_ctrls1.avgRdBW                       54.83                       # Average DRAM read bandwidth in MiByte/s
system.mem_ctrls1.avgWrBW                        3.63                       # Average achieved write bandwidth in MiByte/s
system.mem_ctrls1.avgRdBWSys                    55.09                       # Average system read bandwidth in MiByte/s
system.mem_ctrls1.avgWrBWSys                     3.64                       # Average system write bandwidth in MiByte/s
system.mem_ctrls1.peakBW                     12800.00                       # Theoretical peak bandwidth in MiByte/s
system.mem_ctrls1.busUtil                        0.46                       # Data bus utilization in percentage
system.mem_ctrls1.busUtilRead                    0.43                       # Data bus utilization in percentage for reads
system.mem_ctrls1.busUtilWrite                   0.03                       # Data bus utilization in percentage for writes
system.mem_ctrls1.avgRdQLen                      1.03                       # Average read queue length when enqueuing
system.mem_ctrls1.avgWrQLen                     24.32                       # Average write queue length when enqueuing
system.mem_ctrls1.readRowHits                 1096926                       # Number of row buffer hits during reads
system.mem_ctrls1.writeRowHits                  56798                       # Number of row buffer hits during writes
system.mem_ctrls1.readRowHitRate                65.17                       # Row buffer hit rate for reads
system.mem_ctrls1.writeRowHitRate               50.93                       # Row buffer hit rate for writes
system.mem_ctrls1.avgGap                   1089733.01                       # Average gap between requests
system.mem_ctrls1.pageHitRate                   64.29                       # Row buffer hit rate, read and write combined
system.mem_ctrls1_0.actEnergy              2480178960                       # Energy for activate commands per rank (pJ)
system.mem_ctrls1_0.preEnergy              1318246380                       # Energy for precharge commands per rank (pJ)
system.mem_ctrls1_0.readEnergy             6263707800                       # Energy for read commands per rank (pJ)
system.mem_ctrls1_0.writeEnergy             262461600                       # Energy for write commands per rank (pJ)
system.mem_ctrls1_0.refreshEnergy        112531979040.000031                       # Energy for refresh commands per rank (pJ)
system.mem_ctrls1_0.actBackEnergy         35903609730                       # Energy for active background per rank (pJ)
system.mem_ctrls1_0.preBackEnergy          4529848800                       # Energy for precharge background per rank (pJ)
system.mem_ctrls1_0.actPowerDownEnergy   372473729310                       # Energy for active power-down per rank (pJ)
system.mem_ctrls1_0.prePowerDownEnergy   131478081120                       # Energy for precharge power-down per rank (pJ)
system.mem_ctrls1_0.selfRefreshEnergy    184978579455                       # Energy for self refresh per rank (pJ)
system.mem_ctrls1_0.totalEnergy          852258579645                       # Total energy per rank (pJ)
system.mem_ctrls1_0.averagePower           433.793858                       # Core power per rank (mW)
system.mem_ctrls1_0.totalIdleTime        1873891766866                       # Total Idle time Per DRAM Rank
system.mem_ctrls1_0.memoryStateTime::IDLE   7257689963                       # Time in different power states
system.mem_ctrls1_0.memoryStateTime::REF  47751700000                       # Time in different power states
system.mem_ctrls1_0.memoryStateTime::SREF 714826030932                       # Time in different power states
system.mem_ctrls1_0.memoryStateTime::PRE_PDN 342390074835                       # Time in different power states
system.mem_ctrls1_0.memoryStateTime::ACT  35606762735                       # Time in different power states
system.mem_ctrls1_0.memoryStateTime::ACT_PDN 816830346967                       # Time in different power states
system.mem_ctrls1_1.actEnergy              2095889880                       # Energy for activate commands per rank (pJ)
system.mem_ctrls1_1.preEnergy              1113991890                       # Energy for precharge commands per rank (pJ)
system.mem_ctrls1_1.readEnergy             5753761860                       # Energy for read commands per rank (pJ)
system.mem_ctrls1_1.writeEnergy             319625820                       # Energy for write commands per rank (pJ)
system.mem_ctrls1_1.refreshEnergy        104759856240.000031                       # Energy for refresh commands per rank (pJ)
system.mem_ctrls1_1.actBackEnergy         34449005640                       # Energy for active background per rank (pJ)
system.mem_ctrls1_1.preBackEnergy          4295068320                       # Energy for precharge background per rank (pJ)
system.mem_ctrls1_1.actPowerDownEnergy   342492182460                       # Energy for active power-down per rank (pJ)
system.mem_ctrls1_1.prePowerDownEnergy   122276287200                       # Energy for precharge power-down per rank (pJ)
system.mem_ctrls1_1.selfRefreshEnergy    207045504435                       # Energy for self refresh per rank (pJ)
system.mem_ctrls1_1.totalEnergy          824639754915                       # Total energy per rank (pJ)
system.mem_ctrls1_1.averagePower           419.736062                       # Core power per rank (mW)
system.mem_ctrls1_1.totalIdleTime        1877844266939                       # Total Idle time Per DRAM Rank
system.mem_ctrls1_1.memoryStateTime::IDLE   6988120077                       # Time in different power states
system.mem_ctrls1_1.memoryStateTime::REF  44459914000                       # Time in different power states
system.mem_ctrls1_1.memoryStateTime::SREF 808338491682                       # Time in different power states
system.mem_ctrls1_1.memoryStateTime::PRE_PDN 318427828512                       # Time in different power states
system.mem_ctrls1_1.memoryStateTime::ACT  35367661686                       # Time in different power states
system.mem_ctrls1_1.memoryStateTime::ACT_PDN 751080589475                       # Time in different power states
system.pwrStateResidencyTicks::UNDEFINED 734917103159418                       # Cumulative time (in ticks) in various power states
system.cpu.branchPred.lookups                       4                       # Number of BP lookups
system.cpu.branchPred.condPredicted                 4                       # Number of conditional branches predicted
system.cpu.branchPred.condIncorrect                 4                       # Number of conditional branches incorrect
system.cpu.branchPred.BTBLookups                    0                       # Number of BTB lookups
system.cpu.branchPred.BTBHits                       0                       # Number of BTB hits
system.cpu.branchPred.BTBCorrect                    0                       # Number of correct BTB predictions (this stat may not work properly.
system.cpu.branchPred.BTBHitPct                   nan                       # BTB Hit Percentage
system.cpu.branchPred.usedRAS                       0                       # Number of times the RAS was used to get a target.
system.cpu.branchPred.RASInCorrect                  0                       # Number of incorrect RAS predictions.
system.cpu.branchPred.indirectLookups               0                       # Number of indirect predictor lookups.
system.cpu.branchPred.indirectHits                  0                       # Number of indirect target hits.
system.cpu.branchPred.indirectMisses                0                       # Number of indirect misses.
system.cpu.branchPredindirectMispredicted            0                       # Number of mispredicted indirect branches.
system.cpu_voltage_domain.voltage                   1                       # Voltage in Volts
system.cpu_clk_domain.clock                       333                       # Clock period in ticks
system.cpu.dtb.fetch_hits                           0                       # ITB hits
system.cpu.dtb.fetch_misses                         0                       # ITB misses
system.cpu.dtb.fetch_acv                            0                       # ITB acv
system.cpu.dtb.fetch_accesses                       0                       # ITB accesses
system.cpu.dtb.read_hits                           36                       # DTB read hits
system.cpu.dtb.read_misses                          0                       # DTB read misses
system.cpu.dtb.read_acv                             0                       # DTB read access violations
system.cpu.dtb.read_accesses                       36                       # DTB read accesses
system.cpu.dtb.write_hits                           0                       # DTB write hits
system.cpu.dtb.write_misses                         0                       # DTB write misses
system.cpu.dtb.write_acv                            0                       # DTB write access violations
system.cpu.dtb.write_accesses                       0                       # DTB write accesses
system.cpu.dtb.data_hits                           36                       # DTB hits
system.cpu.dtb.data_misses                          0                       # DTB misses
system.cpu.dtb.data_acv                             0                       # DTB access violations
system.cpu.dtb.data_accesses                       36                       # DTB accesses
system.cpu.itb.fetch_hits                          13                       # ITB hits
system.cpu.itb.fetch_misses                         0                       # ITB misses
system.cpu.itb.fetch_acv                            0                       # ITB acv
system.cpu.itb.fetch_accesses                      13                       # ITB accesses
system.cpu.itb.read_hits                            0                       # DTB read hits
system.cpu.itb.read_misses                          0                       # DTB read misses
system.cpu.itb.read_acv                             0                       # DTB read access violations
system.cpu.itb.read_accesses                        0                       # DTB read accesses
system.cpu.itb.write_hits                           0                       # DTB write hits
system.cpu.itb.write_misses                         0                       # DTB write misses
system.cpu.itb.write_acv                            0                       # DTB write access violations
system.cpu.itb.write_accesses                       0                       # DTB write accesses
system.cpu.itb.data_hits                            0                       # DTB hits
system.cpu.itb.data_misses                          0                       # DTB misses
system.cpu.itb.data_acv                             0                       # DTB access violations
system.cpu.itb.data_accesses                        0                       # DTB accesses
system.cpu.workload.num_syscalls                   44                       # Number of system calls
system.cpu.pwrStateResidencyTicks::ON    1964662605432                       # Cumulative time (in ticks) in various power states
system.cpu.numCycles                              997                       # number of cpu cycles simulated
system.cpu.numWorkItemsStarted                      0                       # number of work items this cpu started
system.cpu.numWorkItemsCompleted                    0                       # number of work items this cpu completed
system.cpu.fetch.icacheStallCycles                 63                       # Number of cycles fetch is stalled on an Icache miss
system.cpu.fetch.Insts                             96                       # Number of instructions fetch has processed
system.cpu.fetch.Branches                           4                       # Number of branches that fetch encountered
system.cpu.fetch.Cycles                            12                       # Number of cycles fetch has run and was not squashing or blocked
system.cpu.fetch.SquashCycles                      11                       # Number of cycles fetch has spent squashing
system.cpu.fetch.PendingDrainCycles                16                       # Number of cycles fetch has spent waiting on pipes to drain
system.cpu.fetch.CacheLines                        13                       # Number of cache lines fetched
system.cpu.fetch.IcacheSquashes                     5                       # Number of outstanding Icache misses that were squashed
system.cpu.fetch.rateDist::samples                 96                       # Number of instructions fetched each cycle (Total)
system.cpu.fetch.rateDist::mean                     1                       # Number of instructions fetched each cycle (Total)
system.cpu.fetch.rateDist::stdev             2.659640                       # Number of instructions fetched each cycle (Total)
system.cpu.fetch.rateDist::underflows               0      0.00%      0.00% # Number of instructions fetched each cycle (Total)
system.cpu.fetch.rateDist::0                       84     87.50%     87.50% # Number of instructions fetched each cycle (Total)
system.cpu.fetch.rateDist::1                        0      0.00%     87.50% # Number of instructions fetched each cycle (Total)
system.cpu.fetch.rateDist::2                        0      0.00%     87.50% # Number of instructions fetched each cycle (Total)
system.cpu.fetch.rateDist::3                        0      0.00%     87.50% # Number of instructions fetched each cycle (Total)
[...]
system.switch_cpus_1.iq.int_inst_queue_wakeup_accesses    287884583                       # Number of integer instruction queue wakeup accesses
system.switch_cpus_1.iq.fp_inst_queue_reads    525356080                       # Number of floating instruction queue reads
system.switch_cpus_1.iq.fp_inst_queue_writes    283729452                       # Number of floating instruction queue writes
system.switch_cpus_1.iq.fp_inst_queue_wakeup_accesses    252365224                       # Number of floating instruction queue wakeup accesses
system.switch_cpus_1.iq.int_alu_accesses    296759837                       # Number of integer alu accesses
system.switch_cpus_1.iq.fp_alu_accesses     268700209                       # Number of floating point alu accesses
system.switch_cpus_1.iew.lsq.thread0.forwLoads      1477393                       # Number of loads that had data forwarded from stores
system.switch_cpus_1.iew.lsq.thread0.invAddrLoads            0                       # Number of loads ignored due to an invalid address
system.switch_cpus_1.iew.lsq.thread0.squashedLoads     16281726                       # Number of loads squashed
system.switch_cpus_1.iew.lsq.thread0.ignoredResponses        19090                       # Number of memory responses ignored because the instruction is squashed
system.switch_cpus_1.iew.lsq.thread0.memOrderViolation         5475                       # Number of memory ordering violations
system.switch_cpus_1.iew.lsq.thread0.squashedStores      1677916                       # Number of stores squashed
system.switch_cpus_1.iew.lsq.thread0.invAddrSwpfs            0                       # Number of software prefetches ignored due to an invalid address
system.switch_cpus_1.iew.lsq.thread0.blockedLoads            0                       # Number of blocked loads due to partial load-store forwarding
system.switch_cpus_1.iew.lsq.thread0.rescheduledLoads          322                       # Number of loads that were rescheduled
system.switch_cpus_1.iew.lsq.thread0.cacheBlocked      4975977                       # Number of times an access to memory failed due to the cache being blocked
system.switch_cpus_1.iew.iewIdleCycles              0                       # Number of cycles IEW is idle
system.switch_cpus_1.iew.iewSquashCycles      1257548                       # Number of cycles IEW is squashing
system.switch_cpus_1.iew.iewBlockCycles     270544882                       # Number of cycles IEW is blocking
system.switch_cpus_1.iew.iewUnblockCycles    138405394                       # Number of cycles IEW is unblocking
system.switch_cpus_1.iew.iewDispatchedInsts    569473082                       # Number of instructions dispatched to IQ
system.switch_cpus_1.iew.iewDispSquashedInsts       798683                       # Number of squashed instructions skipped by dispatch
system.switch_cpus_1.iew.iewDispLoadInsts    124627184                       # Number of dispatched load instructions
system.switch_cpus_1.iew.iewDispStoreInsts     10225921                       # Number of dispatched store instructions
system.switch_cpus_1.iew.iewDispNonSpecInsts        15308                       # Number of dispatched non-speculative instructions
system.switch_cpus_1.iew.iewIQFullEvents      1986736                       # Number of times the IQ has become full, causing a stall
system.switch_cpus_1.iew.iewLSQFullEvents    135086219                       # Number of times the LSQ has become full, causing a stall
system.switch_cpus_1.iew.memOrderViolationEvents         5475                       # Number of memory order violations
system.switch_cpus_1.iew.predictedTakenIncorrect       994557                       # Number of branches that were predicted taken incorrectly
system.switch_cpus_1.iew.predictedNotTakenIncorrect       260167                       # Number of branches that were predicted not taken incorrectly
system.switch_cpus_1.iew.branchMispredicts      1254724                       # Number of branch mispredicts detected at execute
system.switch_cpus_1.iew.iewExecutedInsts    548596616                       # Number of executed instructions
system.switch_cpus_1.iew.iewExecLoadInsts    125547043                       # Number of load instructions executed
system.switch_cpus_1.iew.iewExecSquashedInsts      2490959                       # Number of squashed instructions skipped in execute
system.switch_cpus_1.iew.exec_swp                   0                       # number of swp insts executed
system.switch_cpus_1.iew.exec_nop             5305044                       # number of nop insts executed
system.switch_cpus_1.iew.exec_refs          135139393                       # number of memory reference insts executed
system.switch_cpus_1.iew.exec_branches       44955788                       # Number of branches executed
system.switch_cpus_1.iew.exec_stores          9592350                       # Number of stores executed
system.switch_cpus_1.iew.exec_rate           0.629422                       # Inst execution rate
system.switch_cpus_1.iew.wb_sent            542073559                       # cumulative count of insts sent to commit
system.switch_cpus_1.iew.wb_count           540249807                       # cumulative count of insts written-back
system.switch_cpus_1.iew.wb_producers       399801593                       # num instructions producing a value
system.switch_cpus_1.iew.wb_consumers       510307952                       # num instructions consuming a value
system.switch_cpus_1.iew.wb_rate             0.619845                       # insts written-back per cycle
system.switch_cpus_1.iew.wb_fanout           0.783452                       # average fanout of values written-back
system.switch_cpus_1.commit.commitSquashedInsts     61962166                       # The number of squashed insts skipped by commit
system.switch_cpus_1.commit.commitNonSpecStalls        20752                       # The number of times commit has been forced to stall to communicate backwards
system.switch_cpus_1.commit.branchMispredicts      1080638                       # The number of times a branch was mispredicted
system.switch_cpus_1.commit.committed_per_cycle::samples    861875809                       # Number of insts commited each cycle
system.switch_cpus_1.commit.committed_per_cycle::mean     0.585024                       # Number of insts commited each cycle
system.switch_cpus_1.commit.committed_per_cycle::stdev     1.926105                       # Number of insts commited each cycle
system.switch_cpus_1.commit.committed_per_cycle::underflows            0      0.00%      0.00% # Number of insts commited each cycle
system.switch_cpus_1.commit.committed_per_cycle::0    768909407     89.21%     89.21% # Number of insts commited each cycle
system.switch_cpus_1.commit.committed_per_cycle::1     16958691      1.97%     91.18% # Number of insts commited each cycle
system.switch_cpus_1.commit.committed_per_cycle::2      8783059      1.02%     92.20% # Number of insts commited each cycle
system.switch_cpus_1.commit.committed_per_cycle::3      3420869      0.40%     92.60% # Number of insts commited each cycle
system.switch_cpus_1.commit.committed_per_cycle::4      4401542      0.51%     93.11% # Number of insts commited each cycle
system.switch_cpus_1.commit.committed_per_cycle::5      2827300      0.33%     93.44% # Number of insts commited each cycle
system.switch_cpus_1.commit.committed_per_cycle::6     10667110      1.24%     94.67% # Number of insts commited each cycle
system.switch_cpus_1.commit.committed_per_cycle::7      3577765      0.42%     95.09% # Number of insts commited each cycle
system.switch_cpus_1.commit.committed_per_cycle::8     42330066      4.91%    100.00% # Number of insts commited each cycle
system.switch_cpus_1.commit.committed_per_cycle::overflows            0      0.00%    100.00% # Number of insts commited each cycle
system.switch_cpus_1.commit.committed_per_cycle::min_value            0                       # Number of insts commited each cycle
system.switch_cpus_1.commit.committed_per_cycle::max_value            8                       # Number of insts commited each cycle
system.switch_cpus_1.commit.committed_per_cycle::total    861875809                       # Number of insts commited each cycle
system.switch_cpus_1.commit.committedInsts    504217627                       # Number of instructions committed
system.switch_cpus_1.commit.committedOps    504217627                       # Number of ops (including micro ops) committed
system.switch_cpus_1.commit.swp_count               0                       # Number of s/w prefetches committed
system.switch_cpus_1.commit.refs            116893436                       # Number of memory references committed
system.switch_cpus_1.commit.loads           108345431                       # Number of loads committed
system.switch_cpus_1.commit.membars             10376                       # Number of memory barriers committed
system.switch_cpus_1.commit.branches         40132423                       # Number of branches committed
system.switch_cpus_1.commit.fp_insts        244315275                       # Number of committed floating point instructions.
system.switch_cpus_1.commit.int_insts       341270972                       # Number of committed integer instructions.
system.switch_cpus_1.commit.function_calls       714649                       # Number of function calls committed.
system.switch_cpus_1.commit.op_class_0::No_OpClass      4218322      0.84%      0.84% # Class of committed instruction
system.switch_cpus_1.commit.op_class_0::IntAlu    224524068     44.53%     45.37% # Class of committed instruction
system.switch_cpus_1.commit.op_class_0::IntMult         2949      0.00%     45.37% # Class of committed instruction
system.switch_cpus_1.commit.op_class_0::IntDiv            0      0.00%     45.37% # Class of committed instruction
system.switch_cpus_1.commit.op_class_0::FloatAdd     94705879     18.78%     64.15% # Class of committed instruction
system.switch_cpus_1.commit.op_class_0::FloatCmp      1589067      0.32%     64.46% # Class of committed instruction
system.switch_cpus_1.commit.op_class_0::FloatCvt       559346      0.11%     64.58% # Class of committed instruction
system.switch_cpus_1.commit.op_class_0::FloatMult     61652762     12.23%     76.80% # Class of committed instruction
system.switch_cpus_1.commit.op_class_0::FloatMultAcc            0      0.00%     76.80% # Class of committed instruction
system.switch_cpus_1.commit.op_class_0::FloatDiv        61422      0.01%     76.81% # Class of committed instruction
system.switch_cpus_1.commit.op_class_0::FloatMisc            0      0.00%     76.81% # Class of committed instruction
system.switch_cpus_1.commit.op_class_0::FloatSqrt            0      0.00%     76.81% # Class of committed instruction
system.switch_cpus_1.commit.op_class_0::SimdAdd            0      0.00%     76.81% # Class of committed instruction
system.switch_cpus_1.commit.op_class_0::SimdAddAcc            0      0.00%     76.81% # Class of committed instruction
system.switch_cpus_1.commit.op_class_0::SimdAlu            0      0.00%     76.81% # Class of committed instruction
system.switch_cpus_1.commit.op_class_0::SimdCmp            0      0.00%     76.81% # Class of committed instruction
system.switch_cpus_1.commit.op_class_0::SimdCvt            0      0.00%     76.81% # Class of committed instruction
system.switch_cpus_1.commit.op_class_0::SimdMisc            0      0.00%     76.81% # Class of committed instruction
system.switch_cpus_1.commit.op_class_0::SimdMult            0      0.00%     76.81% # Class of committed instruction
system.switch_cpus_1.commit.op_class_0::SimdMultAcc            0      0.00%     76.81% # Class of committed instruction
system.switch_cpus_1.commit.op_class_0::SimdShift            0      0.00%     76.81% # Class of committed instruction
system.switch_cpus_1.commit.op_class_0::SimdShiftAcc            0      0.00%     76.81% # Class of committed instruction
system.switch_cpus_1.commit.op_class_0::SimdSqrt            0      0.00%     76.81% # Class of committed instruction
system.switch_cpus_1.commit.op_class_0::SimdFloatAdd            0      0.00%     76.81% # Class of committed instruction
system.switch_cpus_1.commit.op_class_0::SimdFloatAlu            0      0.00%     76.81% # Class of committed instruction
system.switch_cpus_1.commit.op_class_0::SimdFloatCmp            0      0.00%     76.81% # Class of committed instruction
system.switch_cpus_1.commit.op_class_0::SimdFloatCvt            0      0.00%     76.81% # Class of committed instruction
system.switch_cpus_1.commit.op_class_0::SimdFloatDiv            0      0.00%     76.81% # Class of committed instruction
system.switch_cpus_1.commit.op_class_0::SimdFloatMisc            0      0.00%     76.81% # Class of committed instruction
system.switch_cpus_1.commit.op_class_0::SimdFloatMult            0      0.00%     76.81% # Class of committed instruction
system.switch_cpus_1.commit.op_class_0::SimdFloatMultAcc            0      0.00%     76.81% # Class of committed instruction
system.switch_cpus_1.commit.op_class_0::SimdFloatSqrt            0      0.00%     76.81% # Class of committed instruction
system.switch_cpus_1.commit.op_class_0::MemRead     24600355      4.88%     81.69% # Class of committed instruction
system.switch_cpus_1.commit.op_class_0::MemWrite      6556658      1.30%     82.99% # Class of committed instruction
system.switch_cpus_1.commit.op_class_0::FloatMemRead     83755452     16.61%     99.61% # Class of committed instruction
system.switch_cpus_1.commit.op_class_0::FloatMemWrite      1991347      0.39%    100.00% # Class of committed instruction
system.switch_cpus_1.commit.op_class_0::IprAccess            0      0.00%    100.00% # Class of committed instruction
system.switch_cpus_1.commit.op_class_0::InstPrefetch            0      0.00%    100.00% # Class of committed instruction
system.switch_cpus_1.commit.op_class_0::total    504217627                       # Class of committed instruction
system.switch_cpus_1.commit.bw_lim_events     42330066                       # number cycles where commit BW limit reached
system.switch_cpus_1.rob.rob_reads         1383484583                       # The number of ROB reads
system.switch_cpus_1.rob.rob_writes        1140782499                       # The number of ROB writes
system.switch_cpus_1.timesIdled                  5514                       # Number of times that the entire CPU went into an idle state and unscheduled itself
system.switch_cpus_1.idleCycles               1294697                       # Total number of cycles that the CPU has spent unscheduled due to idling
system.switch_cpus_1.committedInsts         500000005                       # Number of Instructions Simulated
system.switch_cpus_1.committedOps           500000005                       # Number of Ops (including micro ops) Simulated
system.switch_cpus_1.cpi                     1.743177                       # CPI: Cycles Per Instruction
system.switch_cpus_1.cpi_total               1.743177                       # CPI: Total CPI of All Threads
system.switch_cpus_1.ipc                     0.573665                       # IPC: Instructions Per Cycle
system.switch_cpus_1.ipc_total               0.573665                       # IPC: Total IPC of All Threads
system.switch_cpus_1.int_regfile_reads      543681012                       # number of integer regfile reads
system.switch_cpus_1.int_regfile_writes     237046232                       # number of integer regfile writes
system.switch_cpus_1.fp_regfile_reads       325381984                       # number of floating regfile reads
system.switch_cpus_1.fp_regfile_writes      249857056                       # number of floating regfile writes
system.switch_cpus_1.misc_regfile_reads        953234                       # number of misc regfile reads
system.switch_cpus_1.misc_regfile_writes        21102                       # number of misc regfile writes
system.tol3bus.snoop_filter.tot_requests     32923995                       # Total number of requests made to the snoop filter.
system.tol3bus.snoop_filter.hit_single_requests     16460958                       # Number of requests hitting in the snoop filter with a single holder of the requested data.
system.tol3bus.snoop_filter.hit_multi_requests            0                       # Number of requests hitting in the snoop filter with multiple (>1) holders of the requested data.
system.tol3bus.snoop_filter.tot_snoops           7580                       # Total number of snoops made to the snoop filter.
system.tol3bus.snoop_filter.hit_single_snoops         7580                       # Number of snoops hitting in the snoop filter with a single holder of the requested data.
system.tol3bus.snoop_filter.hit_multi_snoops            0                       # Number of snoops hitting in the snoop filter with multiple (>1) holders of the requested data.
system.tol3bus.pwrStateResidencyTicks::UNDEFINED 734917103159418                       # Cumulative time (in ticks) in various power states
system.tol3bus.trans_dist::ReadResp          15402156                       # Transaction distribution
system.tol3bus.trans_dist::WritebackDirty      2234986                       # Transaction distribution
system.tol3bus.trans_dist::CleanEvict        17547175                       # Transaction distribution
system.tol3bus.trans_dist::UpgradeReq              74                       # Transaction distribution
system.tol3bus.trans_dist::UpgradeResp             74                       # Transaction distribution
system.tol3bus.trans_dist::ReadExReq          1060881                       # Transaction distribution
system.tol3bus.trans_dist::ReadExResp         1060881                       # Transaction distribution
system.tol3bus.trans_dist::ReadSharedReq     15402156                       # Transaction distribution
system.tol3bus.pkt_count_system.cpu.l2.mem_side::system.l3.cpu_side     49387106                       # Packet count per connected master and slave (bytes)
system.tol3bus.pkt_size_system.cpu.l2.mem_side::system.l3.cpu_side   1182334656                       # Cumulative packet size per connected master and slave (bytes)
system.tol3bus.snoops                         3321277                       # Total snoops (count)
system.tol3bus.snoopTraffic                  14338816                       # Total snoop traffic (bytes)
system.tol3bus.snoop_fanout::samples         19784388                       # Request fanout histogram
system.tol3bus.snoop_fanout::mean            0.000383                       # Request fanout histogram
system.tol3bus.snoop_fanout::stdev           0.019570                       # Request fanout histogram
system.tol3bus.snoop_fanout::underflows             0      0.00%      0.00% # Request fanout histogram
system.tol3bus.snoop_fanout::0               19776808     99.96%     99.96% # Request fanout histogram
system.tol3bus.snoop_fanout::1                   7580      0.04%    100.00% # Request fanout histogram
system.tol3bus.snoop_fanout::overflows              0      0.00%    100.00% # Request fanout histogram
system.tol3bus.snoop_fanout::min_value              0                       # Request fanout histogram
system.tol3bus.snoop_fanout::max_value              1                       # Request fanout histogram
system.tol3bus.snoop_fanout::total           19784388                       # Request fanout histogram
system.tol3bus.reqLayer0.occupancy        11633334021                       # Layer occupancy (ticks)
system.tol3bus.reqLayer0.utilization              0.6                       # Layer utilization (%)
system.tol3bus.respLayer0.occupancy       10964407284                       # Layer occupancy (ticks)
system.tol3bus.respLayer0.utilization             0.6                       # Layer utilization (%)

---------- End Simulation Statistics   ----------
