
---------- Begin Simulation Statistics ----------
sim_seconds                                  1.249004                       # Number of seconds simulated
sim_ticks                                1249003548864                       # Number of ticks simulated
final_tick                               18902344939794                       # Number of ticks from beginning of simulation (restored from checkpoints and never reset)
sim_freq                                 1000000000000                       # Frequency of simulated ticks
host_inst_rate                                 397041                       # Simulator instruction rate (inst/s)
host_op_rate                                   397041                       # Simulator op (including micro ops) rate (op/s)
host_tick_rate                              330604018                       # Simulator tick rate (ticks/s)
host_mem_usage                                2396800                       # Number of bytes of host memory used
host_seconds                                  3777.94                       # Real time elapsed on the host
sim_insts                                  1500000005                       # Number of instructions simulated
sim_ops                                    1500000005                       # Number of ops (including micro ops) simulated
system.voltage_domain.voltage                       1                       # Voltage in Volts
system.clk_domain.clock                          1000                       # Clock period in ticks
system.mem_ctrls0.pwrStateResidencyTicks::UNDEFINED 18902344939794                       # Cumulative time (in ticks) in various power states
system.mem_ctrls0.bytes_read::cpu.inst            192                       # Number of bytes read from this memory
system.mem_ctrls0.bytes_read::switch_cpus.inst       165568                       # Number of bytes read from this memory
system.mem_ctrls0.bytes_read::switch_cpus.data      7745408                       # Number of bytes read from this memory
system.mem_ctrls0.bytes_read::switch_cpus_1.inst        49792                       # Number of bytes read from this memory
system.mem_ctrls0.bytes_read::switch_cpus_1.data      2545600                       # Number of bytes read from this memory
system.mem_ctrls0.bytes_read::total          10506560                       # Number of bytes read from this memory
system.mem_ctrls0.bytes_inst_read::cpu.inst          192                       # Number of instructions bytes read from this memory
system.mem_ctrls0.bytes_inst_read::switch_cpus.inst       165568                       # Number of instructions bytes read from this memory
system.mem_ctrls0.bytes_inst_read::switch_cpus_1.inst        49792                       # Number of instructions bytes read from this memory
system.mem_ctrls0.bytes_inst_read::total       215552                       # Number of instructions bytes read from this memory
system.mem_ctrls0.bytes_written::writebacks      6374592                       # Number of bytes written to this memory
system.mem_ctrls0.bytes_written::total        6374592                       # Number of bytes written to this memory
system.mem_ctrls0.num_reads::cpu.inst               3                       # Number of read requests responded to by this memory
system.mem_ctrls0.num_reads::switch_cpus.inst         2587                       # Number of read requests responded to by this memory
system.mem_ctrls0.num_reads::switch_cpus.data       121022                       # Number of read requests responded to by this memory
system.mem_ctrls0.num_reads::switch_cpus_1.inst          778                       # Number of read requests responded to by this memory
system.mem_ctrls0.num_reads::switch_cpus_1.data        39775                       # Number of read requests responded to by this memory
system.mem_ctrls0.num_reads::total             164165                       # Number of read requests responded to by this memory
system.mem_ctrls0.num_writes::writebacks        99603                       # Number of write requests responded to by this memory
system.mem_ctrls0.num_writes::total             99603                       # Number of write requests responded to by this memory
system.mem_ctrls0.bw_read::cpu.inst               154                       # Total read bandwidth from this memory (bytes/s)
system.mem_ctrls0.bw_read::switch_cpus.inst       132560                       # Total read bandwidth from this memory (bytes/s)
system.mem_ctrls0.bw_read::switch_cpus.data      6201270                       # Total read bandwidth from this memory (bytes/s)
system.mem_ctrls0.bw_read::switch_cpus_1.inst        39865                       # Total read bandwidth from this memory (bytes/s)
system.mem_ctrls0.bw_read::switch_cpus_1.data      2038105                       # Total read bandwidth from this memory (bytes/s)
system.mem_ctrls0.bw_read::total              8411954                       # Total read bandwidth from this memory (bytes/s)
system.mem_ctrls0.bw_inst_read::cpu.inst          154                       # Instruction read bandwidth from this memory (bytes/s)
system.mem_ctrls0.bw_inst_read::switch_cpus.inst       132560                       # Instruction read bandwidth from this memory (bytes/s)
system.mem_ctrls0.bw_inst_read::switch_cpus_1.inst        39865                       # Instruction read bandwidth from this memory (bytes/s)
system.mem_ctrls0.bw_inst_read::total          172579                       # Instruction read bandwidth from this memory (bytes/s)
system.mem_ctrls0.bw_write::writebacks        5103742                       # Write bandwidth from this memory (bytes/s)
system.mem_ctrls0.bw_write::total             5103742                       # Write bandwidth from this memory (bytes/s)
system.mem_ctrls0.bw_total::writebacks        5103742                       # Total bandwidth to/from this memory (bytes/s)
system.mem_ctrls0.bw_total::cpu.inst              154                       # Total bandwidth to/from this memory (bytes/s)
system.mem_ctrls0.bw_total::switch_cpus.inst       132560                       # Total bandwidth to/from this memory (bytes/s)
system.mem_ctrls0.bw_total::switch_cpus.data      6201270                       # Total bandwidth to/from this memory (bytes/s)
system.mem_ctrls0.bw_total::switch_cpus_1.inst        39865                       # Total bandwidth to/from this memory (bytes/s)
system.mem_ctrls0.bw_total::switch_cpus_1.data      2038105                       # Total bandwidth to/from this memory (bytes/s)
system.mem_ctrls0.bw_total::total            13515696                       # Total bandwidth to/from this memory (bytes/s)
system.mem_ctrls0.readReqs                     164165                       # Number of read requests accepted
system.mem_ctrls0.writeReqs                     99603                       # Number of write requests accepted
system.mem_ctrls0.readBursts                   164165                       # Number of DRAM read bursts, including those serviced by the write queue
system.mem_ctrls0.writeBursts                   99603                       # Number of DRAM write bursts, including those merged in the write queue
system.mem_ctrls0.bytesReadDRAM              10503040                       # Total number of bytes read from DRAM
system.mem_ctrls0.bytesReadWrQ                   3520                       # Total number of bytes read from write queue
system.mem_ctrls0.bytesWritten                6372928                       # Total number of bytes written to DRAM
system.mem_ctrls0.bytesReadSys               10506560                       # Total read bytes from the system interface side
system.mem_ctrls0.bytesWrittenSys             6374592                       # Total written bytes from the system interface side
system.mem_ctrls0.servicedByWrQ                    55                       # Number of DRAM read bursts serviced by the write queue
system.mem_ctrls0.mergedWrBursts                    0                       # Number of DRAM write bursts merged with an existing one
system.mem_ctrls0.neitherReadNorWriteReqs            0                       # Number of requests that are neither read nor write
system.mem_ctrls0.perBankRdBursts::0            10082                       # Per bank write bursts
system.mem_ctrls0.perBankRdBursts::1            10359                       # Per bank write bursts
system.mem_ctrls0.perBankRdBursts::2            10522                       # Per bank write bursts
system.mem_ctrls0.perBankRdBursts::3            10895                       # Per bank write bursts
system.mem_ctrls0.perBankRdBursts::4            10796                       # Per bank write bursts
system.mem_ctrls0.perBankRdBursts::5            10276                       # Per bank write bursts
system.mem_ctrls0.perBankRdBursts::6             9795                       # Per bank write bursts
system.mem_ctrls0.perBankRdBursts::7            10007                       # Per bank write bursts
system.mem_ctrls0.perBankRdBursts::8            10639                       # Per bank write bursts
system.mem_ctrls0.perBankRdBursts::9            10560                       # Per bank write bursts
system.mem_ctrls0.perBankRdBursts::10           10045                       # Per bank write bursts
system.mem_ctrls0.perBankRdBursts::11           10296                       # Per bank write bursts
system.mem_ctrls0.perBankRdBursts::12           10078                       # Per bank write bursts
system.mem_ctrls0.perBankRdBursts::13           10027                       # Per bank write bursts
system.mem_ctrls0.perBankRdBursts::14            9960                       # Per bank write bursts
system.mem_ctrls0.perBankRdBursts::15            9773                       # Per bank write bursts
system.mem_ctrls0.perBankWrBursts::0             6415                       # Per bank write bursts
system.mem_ctrls0.perBankWrBursts::1             6526                       # Per bank write bursts
system.mem_ctrls0.perBankWrBursts::2             6262                       # Per bank write bursts
system.mem_ctrls0.perBankWrBursts::3             6461                       # Per bank write bursts
system.mem_ctrls0.perBankWrBursts::4             6244                       # Per bank write bursts
system.mem_ctrls0.perBankWrBursts::5             6172                       # Per bank write bursts
system.mem_ctrls0.perBankWrBursts::6             5892                       # Per bank write bursts
system.mem_ctrls0.perBankWrBursts::7             5947                       # Per bank write bursts
system.mem_ctrls0.perBankWrBursts::8             6090                       # Per bank write bursts
system.mem_ctrls0.perBankWrBursts::9             6122                       # Per bank write bursts
system.mem_ctrls0.perBankWrBursts::10            6295                       # Per bank write bursts
system.mem_ctrls0.perBankWrBursts::11            6545                       # Per bank write bursts
system.mem_ctrls0.perBankWrBursts::12            6287                       # Per bank write bursts
system.mem_ctrls0.perBankWrBursts::13            6130                       # Per bank write bursts
system.mem_ctrls0.perBankWrBursts::14            6030                       # Per bank write bursts
system.mem_ctrls0.perBankWrBursts::15            6159                       # Per bank write bursts
system.mem_ctrls0.numRdRetry                        0                       # Number of times read queue was full causing retry
system.mem_ctrls0.numWrRetry                        0                       # Number of times write queue was full causing retry
system.mem_ctrls0.totGap                 1248974736039                       # Total gap between requests
system.mem_ctrls0.readPktSize::0                    0                       # Read request sizes (log2)
system.mem_ctrls0.readPktSize::1                    0                       # Read request sizes (log2)
system.mem_ctrls0.readPktSize::2                    0                       # Read request sizes (log2)
system.mem_ctrls0.readPktSize::3                    0                       # Read request sizes (log2)
system.mem_ctrls0.readPktSize::4                    0                       # Read request sizes (log2)
system.mem_ctrls0.readPktSize::5                    0                       # Read request sizes (log2)
system.mem_ctrls0.readPktSize::6               164165                       # Read request sizes (log2)
system.mem_ctrls0.writePktSize::0                   0                       # Write request sizes (log2)
system.mem_ctrls0.writePktSize::1                   0                       # Write request sizes (log2)
system.mem_ctrls0.writePktSize::2                   0                       # Write request sizes (log2)
system.mem_ctrls0.writePktSize::3                   0                       # Write request sizes (log2)
system.mem_ctrls0.writePktSize::4                   0                       # Write request sizes (log2)
system.mem_ctrls0.writePktSize::5                   0                       # Write request sizes (log2)
system.mem_ctrls0.writePktSize::6               99603                       # Write request sizes (log2)
system.mem_ctrls0.rdQLenPdf::0                 160903                       # What read queue length does an incoming req see
system.mem_ctrls0.rdQLenPdf::1                   3155                       # What read queue length does an incoming req see
system.mem_ctrls0.rdQLenPdf::2                     50                       # What read queue length does an incoming req see
system.mem_ctrls0.rdQLenPdf::3                      2                       # What read queue length does an incoming req see
system.mem_ctrls0.rdQLenPdf::4                      0                       # What read queue length does an incoming req see
system.mem_ctrls0.rdQLenPdf::5                      0                       # What read queue length does an incoming req see
system.mem_ctrls0.rdQLenPdf::6                      0                       # What read queue length does an incoming req see
system.mem_ctrls0.rdQLenPdf::7                      0                       # What read queue length does an incoming req see
system.mem_ctrls0.rdQLenPdf::8                      0                       # What read queue length does an incoming req see
system.mem_ctrls0.rdQLenPdf::9                      0                       # What read queue length does an incoming req see
system.mem_ctrls0.rdQLenPdf::10                     0                       # What read queue length does an incoming req see
system.mem_ctrls0.rdQLenPdf::11                     0                       # What read queue length does an incoming req see
system.mem_ctrls0.rdQLenPdf::12                     0                       # What read queue length does an incoming req see
system.mem_ctrls0.rdQLenPdf::13                     0                       # What read queue length does an incoming req see
system.mem_ctrls0.rdQLenPdf::14                     0                       # What read queue length does an incoming req see
system.mem_ctrls0.rdQLenPdf::15                     0                       # What read queue length does an incoming req see
system.mem_ctrls0.rdQLenPdf::16                     0                       # What read queue length does an incoming req see
system.mem_ctrls0.rdQLenPdf::17                     0                       # What read queue length does an incoming req see
system.mem_ctrls0.rdQLenPdf::18                     0                       # What read queue length does an incoming req see
system.mem_ctrls0.rdQLenPdf::19                     0                       # What read queue length does an incoming req see
system.mem_ctrls0.rdQLenPdf::20                     0                       # What read queue length does an incoming req see
system.mem_ctrls0.rdQLenPdf::21                     0                       # What read queue length does an incoming req see
system.mem_ctrls0.rdQLenPdf::22                     0                       # What read queue length does an incoming req see
system.mem_ctrls0.rdQLenPdf::23                     0                       # What read queue length does an incoming req see
system.mem_ctrls0.rdQLenPdf::24                     0                       # What read queue length does an incoming req see
system.mem_ctrls0.rdQLenPdf::25                     0                       # What read queue length does an incoming req see
system.mem_ctrls0.rdQLenPdf::26                     0                       # What read queue length does an incoming req see
system.mem_ctrls0.rdQLenPdf::27                     0                       # What read queue length does an incoming req see
system.mem_ctrls0.rdQLenPdf::28                     0                       # What read queue length does an incoming req see
system.mem_ctrls0.rdQLenPdf::29                     0                       # What read queue length does an incoming req see
system.mem_ctrls0.rdQLenPdf::30                     0                       # What read queue length does an incoming req see
system.mem_ctrls0.rdQLenPdf::31                     0                       # What read queue length does an incoming req see
system.mem_ctrls0.wrQLenPdf::0                      2                       # What write queue length does an incoming req see
system.mem_ctrls0.wrQLenPdf::1                      2                       # What write queue length does an incoming req see
system.mem_ctrls0.wrQLenPdf::2                      2                       # What write queue length does an incoming req see
system.mem_ctrls0.wrQLenPdf::3                      2                       # What write queue length does an incoming req see
system.mem_ctrls0.wrQLenPdf::4                      2                       # What write queue length does an incoming req see
system.mem_ctrls0.wrQLenPdf::5                      2                       # What write queue length does an incoming req see
system.mem_ctrls0.wrQLenPdf::6                      2                       # What write queue length does an incoming req see
system.mem_ctrls0.wrQLenPdf::7                      2                       # What write queue length does an incoming req see
system.mem_ctrls0.wrQLenPdf::8                      2                       # What write queue length does an incoming req see
system.mem_ctrls0.wrQLenPdf::9                      2                       # What write queue length does an incoming req see
system.mem_ctrls0.wrQLenPdf::10                     2                       # What write queue length does an incoming req see
system.mem_ctrls0.wrQLenPdf::11                     2                       # What write queue length does an incoming req see
system.mem_ctrls0.wrQLenPdf::12                     2                       # What write queue length does an incoming req see
system.mem_ctrls0.wrQLenPdf::13                     2                       # What write queue length does an incoming req see
system.mem_ctrls0.wrQLenPdf::14                     2                       # What write queue length does an incoming req see
system.mem_ctrls0.wrQLenPdf::15                  4754                       # What write queue length does an incoming req see
system.mem_ctrls0.wrQLenPdf::16                  4849                       # What write queue length does an incoming req see
system.mem_ctrls0.wrQLenPdf::17                  5548                       # What write queue length does an incoming req see
system.mem_ctrls0.wrQLenPdf::18                  5609                       # What write queue length does an incoming req see
system.mem_ctrls0.wrQLenPdf::19                  5612                       # What write queue length does an incoming req see
system.mem_ctrls0.wrQLenPdf::20                  5628                       # What write queue length does an incoming req see
system.mem_ctrls0.wrQLenPdf::21                  5620                       # What write queue length does an incoming req see
system.mem_ctrls0.wrQLenPdf::22                  5641                       # What write queue length does an incoming req see
system.mem_ctrls0.wrQLenPdf::23                  5636                       # What write queue length does an incoming req see
system.mem_ctrls0.wrQLenPdf::24                  5624                       # What write queue length does an incoming req see
system.mem_ctrls0.wrQLenPdf::25                  5615                       # What write queue length does an incoming req see
system.mem_ctrls0.wrQLenPdf::26                  5636                       # What write queue length does an incoming req see
system.mem_ctrls0.wrQLenPdf::27                  5618                       # What write queue length does an incoming req see
system.mem_ctrls0.wrQLenPdf::28                  5615                       # What write queue length does an incoming req see
system.mem_ctrls0.wrQLenPdf::29                  5611                       # What write queue length does an incoming req see
system.mem_ctrls0.wrQLenPdf::30                  5616                       # What write queue length does an incoming req see
system.mem_ctrls0.wrQLenPdf::31                  5599                       # What write queue length does an incoming req see
system.mem_ctrls0.wrQLenPdf::32                  5596                       # What write queue length does an incoming req see
system.mem_ctrls0.wrQLenPdf::33                   113                       # What write queue length does an incoming req see
system.mem_ctrls0.wrQLenPdf::34                    22                       # What write queue length does an incoming req see
system.mem_ctrls0.wrQLenPdf::35                     8                       # What write queue length does an incoming req see
system.mem_ctrls0.wrQLenPdf::36                     1                       # What write queue length does an incoming req see
system.mem_ctrls0.wrQLenPdf::37                     1                       # What write queue length does an incoming req see
system.mem_ctrls0.wrQLenPdf::38                     1                       # What write queue length does an incoming req see
system.mem_ctrls0.wrQLenPdf::39                     0                       # What write queue length does an incoming req see
system.mem_ctrls0.wrQLenPdf::40                     0                       # What write queue length does an incoming req see
system.mem_ctrls0.wrQLenPdf::41                     0                       # What write queue length does an incoming req see
system.mem_ctrls0.wrQLenPdf::42                     0                       # What write queue length does an incoming req see
system.mem_ctrls0.wrQLenPdf::43                     0                       # What write queue length does an incoming req see
system.mem_ctrls0.wrQLenPdf::44                     0                       # What write queue length does an incoming req see
system.mem_ctrls0.wrQLenPdf::45                     0                       # What write queue length does an incoming req see
system.mem_ctrls0.wrQLenPdf::46                     0                       # What write queue length does an incoming req see
system.mem_ctrls0.wrQLenPdf::47                     0                       # What write queue length does an incoming req see
system.mem_ctrls0.wrQLenPdf::48                     0                       # What write queue length does an incoming req see
system.mem_ctrls0.wrQLenPdf::49                     0                       # What write queue length does an incoming req see
system.mem_ctrls0.wrQLenPdf::50                     0                       # What write queue length does an incoming req see
system.mem_ctrls0.wrQLenPdf::51                     0                       # What write queue length does an incoming req see
system.mem_ctrls0.wrQLenPdf::52                     0                       # What write queue length does an incoming req see
system.mem_ctrls0.wrQLenPdf::53                     0                       # What write queue length does an incoming req see
system.mem_ctrls0.wrQLenPdf::54                     0                       # What write queue length does an incoming req see
system.mem_ctrls0.wrQLenPdf::55                     0                       # What write queue length does an incoming req see
system.mem_ctrls0.wrQLenPdf::56                     0                       # What write queue length does an incoming req see
system.mem_ctrls0.wrQLenPdf::57                     0                       # What write queue length does an incoming req see
system.mem_ctrls0.wrQLenPdf::58                     0                       # What write queue length does an incoming req see
system.mem_ctrls0.wrQLenPdf::59                     0                       # What write queue length does an incoming req see
system.mem_ctrls0.wrQLenPdf::60                     0                       # What write queue length does an incoming req see
system.mem_ctrls0.wrQLenPdf::61                     0                       # What write queue length does an incoming req see
system.mem_ctrls0.wrQLenPdf::62                     0                       # What write queue length does an incoming req see
system.mem_ctrls0.wrQLenPdf::63                     0                       # What write queue length does an incoming req see
system.mem_ctrls0.bytesPerActivate::samples       230950                       # Bytes accessed per row activation
system.mem_ctrls0.bytesPerActivate::mean    73.071955                       # Bytes accessed per row activation
system.mem_ctrls0.bytesPerActivate::gmean    68.489173                       # Bytes accessed per row activation
system.mem_ctrls0.bytesPerActivate::stdev    54.494773                       # Bytes accessed per row activation
system.mem_ctrls0.bytesPerActivate::0-127       213405     92.40%     92.40% # Bytes accessed per row activation
system.mem_ctrls0.bytesPerActivate::128-255        15401      6.67%     99.07% # Bytes accessed per row activation
system.mem_ctrls0.bytesPerActivate::256-383          879      0.38%     99.45% # Bytes accessed per row activation
system.mem_ctrls0.bytesPerActivate::384-511          308      0.13%     99.59% # Bytes accessed per row activation
system.mem_ctrls0.bytesPerActivate::512-639          172      0.07%     99.66% # Bytes accessed per row activation
system.mem_ctrls0.bytesPerActivate::640-767          261      0.11%     99.77% # Bytes accessed per row activation
system.mem_ctrls0.bytesPerActivate::768-895          160      0.07%     99.84% # Bytes accessed per row activation
system.mem_ctrls0.bytesPerActivate::896-1023           88      0.04%     99.88% # Bytes accessed per row activation
system.mem_ctrls0.bytesPerActivate::1024-1151          276      0.12%    100.00% # Bytes accessed per row activation
system.mem_ctrls0.bytesPerActivate::total       230950                       # Bytes accessed per row activation
system.mem_ctrls0.rdPerTurnAround::samples         5597                       # Reads before turning the bus around for writes
system.mem_ctrls0.rdPerTurnAround::mean     29.317134                       # Reads before turning the bus around for writes
system.mem_ctrls0.rdPerTurnAround::stdev   351.170597                       # Reads before turning the bus around for writes
system.mem_ctrls0.rdPerTurnAround::0-1023         5596     99.98%     99.98% # Reads before turning the bus around for writes
system.mem_ctrls0.rdPerTurnAround::25600-26623            1      0.02%    100.00% # Reads before turning the bus around for writes
system.mem_ctrls0.rdPerTurnAround::total         5597                       # Reads before turning the bus around for writes
system.mem_ctrls0.wrPerTurnAround::samples         5597                       # Writes before turning the bus around for reads
system.mem_ctrls0.wrPerTurnAround::mean     17.791138                       # Writes before turning the bus around for reads
system.mem_ctrls0.wrPerTurnAround::gmean    17.772505                       # Writes before turning the bus around for reads
system.mem_ctrls0.wrPerTurnAround::stdev     0.804166                       # Writes before turning the bus around for reads
system.mem_ctrls0.wrPerTurnAround::16             766     13.69%     13.69% # Writes before turning the bus around for reads
system.mem_ctrls0.wrPerTurnAround::17              70      1.25%     14.94% # Writes before turning the bus around for reads
system.mem_ctrls0.wrPerTurnAround::18            4409     78.77%     93.71% # Writes before turning the bus around for reads
system.mem_ctrls0.wrPerTurnAround::19             302      5.40%     99.11% # Writes before turning the bus around for reads
system.mem_ctrls0.wrPerTurnAround::20              35      0.63%     99.73% # Writes before turning the bus around for reads
system.mem_ctrls0.wrPerTurnAround::21               9      0.16%     99.89% # Writes before turning the bus around for reads
system.mem_ctrls0.wrPerTurnAround::22               2      0.04%     99.93% # Writes before turning the bus around for reads
system.mem_ctrls0.wrPerTurnAround::23               1      0.02%     99.95% # Writes before turning the bus around for reads
system.mem_ctrls0.wrPerTurnAround::24               1      0.02%     99.96% # Writes before turning the bus around for reads
system.mem_ctrls0.wrPerTurnAround::25               1      0.02%     99.98% # Writes before turning the bus around for reads
system.mem_ctrls0.wrPerTurnAround::26               1      0.02%    100.00% # Writes before turning the bus around for reads
system.mem_ctrls0.wrPerTurnAround::total         5597                       # Writes before turning the bus around for reads
system.mem_ctrls0.totQLat                 29738540534                       # Total ticks spent queuing
system.mem_ctrls0.totMemAccLat            32815603034                       # Total ticks spent from burst creation until serviced by the DRAM
system.mem_ctrls0.totBusLat                 820550000                       # Total ticks spent in databus transfers
system.mem_ctrls0.avgQLat                   181211.02                       # Average queueing delay per DRAM burst
system.mem_ctrls0.avgBusLat                   5000.00                       # Average bus latency per DRAM burst
system.mem_ctrls0.avgMemAccLat              199961.02                       # Average memory access latency per DRAM burst
system.mem_ctrls0.avgRdBW                        8.41                       # Average DRAM read bandwidth in MiByte/s
system.mem_ctrls0.avgWrBW                        5.10                       # Average achieved write bandwidth in MiByte/s
system.mem_ctrls0.avgRdBWSys                     8.41                       # Average system read bandwidth in MiByte/s
system.mem_ctrls0.avgWrBWSys                     5.10                       # Average system write bandwidth in MiByte/s
system.mem_ctrls0.peakBW                     12800.00                       # Theoretical peak bandwidth in MiByte/s
system.mem_ctrls0.busUtil                        0.11                       # Data bus utilization in percentage
system.mem_ctrls0.busUtilRead                    0.07                       # Data bus utilization in percentage for reads
system.mem_ctrls0.busUtilWrite                   0.04                       # Data bus utilization in percentage for writes
system.mem_ctrls0.avgRdQLen                      1.01                       # Average read queue length when enqueuing
system.mem_ctrls0.avgWrQLen                     21.09                       # Average write queue length when enqueuing
system.mem_ctrls0.readRowHits                   22208                       # Number of row buffer hits during reads
system.mem_ctrls0.writeRowHits                  10529                       # Number of row buffer hits during writes
system.mem_ctrls0.readRowHitRate                13.53                       # Row buffer hit rate for reads
system.mem_ctrls0.writeRowHitRate               10.57                       # Row buffer hit rate for writes
system.mem_ctrls0.avgGap                   4735126.08                       # Average gap between requests
system.mem_ctrls0.pageHitRate                   12.41                       # Row buffer hit rate, read and write combined
system.mem_ctrls0_0.actEnergy               829932180                       # Energy for activate commands per rank (pJ)
system.mem_ctrls0_0.preEnergy               441119415                       # Energy for precharge commands per rank (pJ)
system.mem_ctrls0_0.readEnergy              590706480                       # Energy for read commands per rank (pJ)
system.mem_ctrls0_0.writeEnergy             260577180                       # Energy for write commands per rank (pJ)
system.mem_ctrls0_0.refreshEnergy        62665621200.000015                       # Energy for refresh commands per rank (pJ)
system.mem_ctrls0_0.actBackEnergy         22017416790                       # Energy for active background per rank (pJ)
system.mem_ctrls0_0.preBackEnergy          3642605760                       # Energy for precharge background per rank (pJ)
system.mem_ctrls0_0.actPowerDownEnergy   124810458690                       # Energy for active power-down per rank (pJ)
system.mem_ctrls0_0.prePowerDownEnergy   103975145760                       # Energy for precharge power-down per rank (pJ)
system.mem_ctrls0_0.selfRefreshEnergy    169823710395                       # Energy for self refresh per rank (pJ)
system.mem_ctrls0_0.totalEnergy          489086504250                       # Total energy per rank (pJ)
system.mem_ctrls0_0.averagePower           391.581354                       # Core power per rank (mW)
system.mem_ctrls0_0.totalIdleTime        1191150216093                       # Total Idle time Per DRAM Rank
system.mem_ctrls0_0.memoryStateTime::IDLE   7278410720                       # Time in different power states
system.mem_ctrls0_0.memoryStateTime::REF  26669628000                       # Time in different power states
system.mem_ctrls0_0.memoryStateTime::SREF 646693267709                       # Time in different power states
system.mem_ctrls0_0.memoryStateTime::PRE_PDN 270768903822                       # Time in different power states
system.mem_ctrls0_0.memoryStateTime::ACT  23885983471                       # Time in different power states
system.mem_ctrls0_0.memoryStateTime::ACT_PDN 273707355142                       # Time in different power states
system.mem_ctrls0_1.actEnergy               819050820                       # Energy for activate commands per rank (pJ)
system.mem_ctrls0_1.preEnergy               435335835                       # Energy for precharge commands per rank (pJ)
system.mem_ctrls0_1.readEnergy              581038920                       # Energy for read commands per rank (pJ)
system.mem_ctrls0_1.writeEnergy             259214760                       # Energy for write commands per rank (pJ)
system.mem_ctrls0_1.refreshEnergy        62781173520.000015                       # Energy for refresh commands per rank (pJ)
system.mem_ctrls0_1.actBackEnergy         21938213580                       # Energy for active background per rank (pJ)
system.mem_ctrls0_1.preBackEnergy          3670056960                       # Energy for precharge background per rank (pJ)
system.mem_ctrls0_1.actPowerDownEnergy   124406839410                       # Energy for active power-down per rank (pJ)
system.mem_ctrls0_1.prePowerDownEnergy   104136102240                       # Energy for precharge power-down per rank (pJ)
system.mem_ctrls0_1.selfRefreshEnergy    170114642985                       # Energy for self refresh per rank (pJ)
system.mem_ctrls0_1.totalEnergy          489171636180                       # Total energy per rank (pJ)
system.mem_ctrls0_1.averagePower           391.649512                       # Core power per rank (mW)
system.mem_ctrls0_1.totalIdleTime        1191245908651                       # Total Idle time Per DRAM Rank
system.mem_ctrls0_1.memoryStateTime::IDLE   7352239799                       # Time in different power states
system.mem_ctrls0_1.memoryStateTime::REF  26720278000                       # Time in different power states
system.mem_ctrls0_1.memoryStateTime::SREF 647259523400                       # Time in different power states
system.mem_ctrls0_1.memoryStateTime::PRE_PDN 271187614361                       # Time in different power states
system.mem_ctrls0_1.memoryStateTime::ACT  23661857993                       # Time in different power states
system.mem_ctrls0_1.memoryStateTime::ACT_PDN 272822035311                       # Time in different power states
system.mem_ctrls1.pwrStateResidencyTicks::UNDEFINED 18902344939794                       # Cumulative time (in ticks) in various power states
system.mem_ctrls1.bytes_read::cpu.inst            128                       # Number of bytes read from this memory
system.mem_ctrls1.bytes_read::cpu.data            192                       # Number of bytes read from this memory
system.mem_ctrls1.bytes_read::switch_cpus.inst       162304                       # Number of bytes read from this memory
system.mem_ctrls1.bytes_read::switch_cpus.data      7777536                       # Number of bytes read from this memory
system.mem_ctrls1.bytes_read::switch_cpus_1.inst        48640                       # Number of bytes read from this memory
system.mem_ctrls1.bytes_read::switch_cpus_1.data      2548800                       # Number of bytes read from this memory
system.mem_ctrls1.bytes_read::total          10537600                       # Number of bytes read from this memory
system.mem_ctrls1.bytes_inst_read::cpu.inst          128                       # Number of instructions bytes read from this memory
system.mem_ctrls1.bytes_inst_read::switch_cpus.inst       162304                       # Number of instructions bytes read from this memory
system.mem_ctrls1.bytes_inst_read::switch_cpus_1.inst        48640                       # Number of instructions bytes read from this memory
system.mem_ctrls1.bytes_inst_read::total       211072                       # Number of instructions bytes read from this memory
system.mem_ctrls1.bytes_written::writebacks      6405376                       # Number of bytes written to this memory
system.mem_ctrls1.bytes_written::total        6405376                       # Number of bytes written to this memory
system.mem_ctrls1.num_reads::cpu.inst               2                       # Number of read requests responded to by this memory
system.mem_ctrls1.num_reads::cpu.data               3                       # Number of read requests responded to by this memory
system.mem_ctrls1.num_reads::switch_cpus.inst         2536                       # Number of read requests responded to by this memory
system.mem_ctrls1.num_reads::switch_cpus.data       121524                       # Number of read requests responded to by this memory
system.mem_ctrls1.num_reads::switch_cpus_1.inst          760                       # Number of read requests responded to by this memory
system.mem_ctrls1.num_reads::switch_cpus_1.data        39825                       # Number of read requests responded to by this memory
system.mem_ctrls1.num_reads::total             164650                       # Number of read requests responded to by this memory
system.mem_ctrls1.num_writes::writebacks       100084                       # Number of write requests responded to by this memory
system.mem_ctrls1.num_writes::total            100084                       # Number of write requests responded to by this memory
system.mem_ctrls1.bw_read::cpu.inst               102                       # Total read bandwidth from this memory (bytes/s)
system.mem_ctrls1.bw_read::cpu.data               154                       # Total read bandwidth from this memory (bytes/s)
system.mem_ctrls1.bw_read::switch_cpus.inst       129947                       # Total read bandwidth from this memory (bytes/s)
system.mem_ctrls1.bw_read::switch_cpus.data      6226993                       # Total read bandwidth from this memory (bytes/s)
system.mem_ctrls1.bw_read::switch_cpus_1.inst        38943                       # Total read bandwidth from this memory (bytes/s)
system.mem_ctrls1.bw_read::switch_cpus_1.data      2040667                       # Total read bandwidth from this memory (bytes/s)
system.mem_ctrls1.bw_read::total              8436805                       # Total read bandwidth from this memory (bytes/s)
system.mem_ctrls1.bw_inst_read::cpu.inst          102                       # Instruction read bandwidth from this memory (bytes/s)
system.mem_ctrls1.bw_inst_read::switch_cpus.inst       129947                       # Instruction read bandwidth from this memory (bytes/s)
system.mem_ctrls1.bw_inst_read::switch_cpus_1.inst        38943                       # Instruction read bandwidth from this memory (bytes/s)
system.mem_ctrls1.bw_inst_read::total          168992                       # Instruction read bandwidth from this memory (bytes/s)
system.mem_ctrls1.bw_write::writebacks        5128389                       # Write bandwidth from this memory (bytes/s)
system.mem_ctrls1.bw_write::total             5128389                       # Write bandwidth from this memory (bytes/s)
system.mem_ctrls1.bw_total::writebacks        5128389                       # Total bandwidth to/from this memory (bytes/s)
system.mem_ctrls1.bw_total::cpu.inst              102                       # Total bandwidth to/from this memory (bytes/s)
system.mem_ctrls1.bw_total::cpu.data              154                       # Total bandwidth to/from this memory (bytes/s)
system.mem_ctrls1.bw_total::switch_cpus.inst       129947                       # Total bandwidth to/from this memory (bytes/s)
system.mem_ctrls1.bw_total::switch_cpus.data      6226993                       # Total bandwidth to/from this memory (bytes/s)
system.mem_ctrls1.bw_total::switch_cpus_1.inst        38943                       # Total bandwidth to/from this memory (bytes/s)
system.mem_ctrls1.bw_total::switch_cpus_1.data      2040667                       # Total bandwidth to/from this memory (bytes/s)
system.mem_ctrls1.bw_total::total            13565194                       # Total bandwidth to/from this memory (bytes/s)
system.mem_ctrls1.readReqs                     164650                       # Number of read requests accepted
system.mem_ctrls1.writeReqs                    100084                       # Number of write requests accepted
system.mem_ctrls1.readBursts                   164650                       # Number of DRAM read bursts, including those serviced by the write queue
system.mem_ctrls1.writeBursts                  100084                       # Number of DRAM write bursts, including those merged in the write queue
system.mem_ctrls1.bytesReadDRAM              10533504                       # Total number of bytes read from DRAM
system.mem_ctrls1.bytesReadWrQ                   4096                       # Total number of bytes read from write queue
system.mem_ctrls1.bytesWritten                6404224                       # Total number of bytes written to DRAM
system.mem_ctrls1.bytesReadSys               10537600                       # Total read bytes from the system interface side
system.mem_ctrls1.bytesWrittenSys             6405376                       # Total written bytes from the system interface side
system.mem_ctrls1.servicedByWrQ                    64                       # Number of DRAM read bursts serviced by the write queue
system.mem_ctrls1.mergedWrBursts                    0                       # Number of DRAM write bursts merged with an existing one
system.mem_ctrls1.neitherReadNorWriteReqs            0                       # Number of requests that are neither read nor write
system.mem_ctrls1.perBankRdBursts::0            10120                       # Per bank write bursts
system.mem_ctrls1.perBankRdBursts::1            10297                       # Per bank write bursts
system.mem_ctrls1.perBankRdBursts::2            10489                       # Per bank write bursts
system.mem_ctrls1.perBankRdBursts::3            10831                       # Per bank write bursts
system.mem_ctrls1.perBankRdBursts::4            10725                       # Per bank write bursts
system.mem_ctrls1.perBankRdBursts::5            10453                       # Per bank write bursts
system.mem_ctrls1.perBankRdBursts::6             9761                       # Per bank write bursts
system.mem_ctrls1.perBankRdBursts::7            10173                       # Per bank write bursts
system.mem_ctrls1.perBankRdBursts::8            10579                       # Per bank write bursts
system.mem_ctrls1.perBankRdBursts::9            10693                       # Per bank write bursts
system.mem_ctrls1.perBankRdBursts::10           10184                       # Per bank write bursts
system.mem_ctrls1.perBankRdBursts::11           10477                       # Per bank write bursts
system.mem_ctrls1.perBankRdBursts::12           10119                       # Per bank write bursts
system.mem_ctrls1.perBankRdBursts::13            9964                       # Per bank write bursts
system.mem_ctrls1.perBankRdBursts::14            9829                       # Per bank write bursts
system.mem_ctrls1.perBankRdBursts::15            9892                       # Per bank write bursts
system.mem_ctrls1.perBankWrBursts::0             6406                       # Per bank write bursts
system.mem_ctrls1.perBankWrBursts::1             6512                       # Per bank write bursts
system.mem_ctrls1.perBankWrBursts::2             6260                       # Per bank write bursts
system.mem_ctrls1.perBankWrBursts::3             6366                       # Per bank write bursts
system.mem_ctrls1.perBankWrBursts::4             6300                       # Per bank write bursts
system.mem_ctrls1.perBankWrBursts::5             6229                       # Per bank write bursts
system.mem_ctrls1.perBankWrBursts::6             5882                       # Per bank write bursts
system.mem_ctrls1.perBankWrBursts::7             6024                       # Per bank write bursts
system.mem_ctrls1.perBankWrBursts::8             6049                       # Per bank write bursts
system.mem_ctrls1.perBankWrBursts::9             6178                       # Per bank write bursts
system.mem_ctrls1.perBankWrBursts::10            6348                       # Per bank write bursts
system.mem_ctrls1.perBankWrBursts::11            6746                       # Per bank write bursts
system.mem_ctrls1.perBankWrBursts::12            6393                       # Per bank write bursts
system.mem_ctrls1.perBankWrBursts::13            6091                       # Per bank write bursts
system.mem_ctrls1.perBankWrBursts::14            6027                       # Per bank write bursts
system.mem_ctrls1.perBankWrBursts::15            6255                       # Per bank write bursts
system.mem_ctrls1.numRdRetry                        0                       # Number of times read queue was full causing retry
system.mem_ctrls1.numWrRetry                        0                       # Number of times write queue was full causing retry
system.mem_ctrls1.totGap                 1248978952152                       # Total gap between requests
system.mem_ctrls1.readPktSize::0                    0                       # Read request sizes (log2)
system.mem_ctrls1.readPktSize::1                    0                       # Read request sizes (log2)
system.mem_ctrls1.readPktSize::2                    0                       # Read request sizes (log2)
system.mem_ctrls1.readPktSize::3                    0                       # Read request sizes (log2)
system.mem_ctrls1.readPktSize::4                    0                       # Read request sizes (log2)
system.mem_ctrls1.readPktSize::5                    0                       # Read request sizes (log2)
system.mem_ctrls1.readPktSize::6               164650                       # Read request sizes (log2)
system.mem_ctrls1.writePktSize::0                   0                       # Write request sizes (log2)
system.mem_ctrls1.writePktSize::1                   0                       # Write request sizes (log2)
system.mem_ctrls1.writePktSize::2                   0                       # Write request sizes (log2)
system.mem_ctrls1.writePktSize::3                   0                       # Write request sizes (log2)
system.mem_ctrls1.writePktSize::4                   0                       # Write request sizes (log2)
system.mem_ctrls1.writePktSize::5                   0                       # Write request sizes (log2)
system.mem_ctrls1.writePktSize::6              100084                       # Write request sizes (log2)
system.mem_ctrls1.rdQLenPdf::0                 161268                       # What read queue length does an incoming req see
system.mem_ctrls1.rdQLenPdf::1                   3261                       # What read queue length does an incoming req see
system.mem_ctrls1.rdQLenPdf::2                     55                       # What read queue length does an incoming req see
system.mem_ctrls1.rdQLenPdf::3                      2                       # What read queue length does an incoming req see
system.mem_ctrls1.rdQLenPdf::4                      0                       # What read queue length does an incoming req see
system.mem_ctrls1.rdQLenPdf::5                      0                       # What read queue length does an incoming req see
system.mem_ctrls1.rdQLenPdf::6                      0                       # What read queue length does an incoming req see
system.mem_ctrls1.rdQLenPdf::7                      0                       # What read queue length does an incoming req see
system.mem_ctrls1.rdQLenPdf::8                      0                       # What read queue length does an incoming req see
system.mem_ctrls1.rdQLenPdf::9                      0                       # What read queue length does an incoming req see
system.mem_ctrls1.rdQLenPdf::10                     0                       # What read queue length does an incoming req see
system.mem_ctrls1.rdQLenPdf::11                     0                       # What read queue length does an incoming req see
system.mem_ctrls1.rdQLenPdf::12                     0                       # What read queue length does an incoming req see
system.mem_ctrls1.rdQLenPdf::13                     0                       # What read queue length does an incoming req see
system.mem_ctrls1.rdQLenPdf::14                     0                       # What read queue length does an incoming req see
system.mem_ctrls1.rdQLenPdf::15                     0                       # What read queue length does an incoming req see
system.mem_ctrls1.rdQLenPdf::16                     0                       # What read queue length does an incoming req see
system.mem_ctrls1.rdQLenPdf::17                     0                       # What read queue length does an incoming req see
system.mem_ctrls1.rdQLenPdf::18                     0                       # What read queue length does an incoming req see
system.mem_ctrls1.rdQLenPdf::19                     0                       # What read queue length does an incoming req see
system.mem_ctrls1.rdQLenPdf::20                     0                       # What read queue length does an incoming req see
system.mem_ctrls1.rdQLenPdf::21                     0                       # What read queue length does an incoming req see
system.mem_ctrls1.rdQLenPdf::22                     0                       # What read queue length does an incoming req see
system.mem_ctrls1.rdQLenPdf::23                     0                       # What read queue length does an incoming req see
system.mem_ctrls1.rdQLenPdf::24                     0                       # What read queue length does an incoming req see
system.mem_ctrls1.rdQLenPdf::25                     0                       # What read queue length does an incoming req see
system.mem_ctrls1.rdQLenPdf::26                     0                       # What read queue length does an incoming req see
system.mem_ctrls1.rdQLenPdf::27                     0                       # What read queue length does an incoming req see
system.mem_ctrls1.rdQLenPdf::28                     0                       # What read queue length does an incoming req see
system.mem_ctrls1.rdQLenPdf::29                     0                       # What read queue length does an incoming req see
system.mem_ctrls1.rdQLenPdf::30                     0                       # What read queue length does an incoming req see
system.mem_ctrls1.rdQLenPdf::31                     0                       # What read queue length does an incoming req see
system.mem_ctrls1.wrQLenPdf::0                      2                       # What write queue length does an incoming req see
system.mem_ctrls1.wrQLenPdf::1                      2                       # What write queue length does an incoming req see
system.mem_ctrls1.wrQLenPdf::2                      2                       # What write queue length does an incoming req see
system.mem_ctrls1.wrQLenPdf::3                      2                       # What write queue length does an incoming req see
system.mem_ctrls1.wrQLenPdf::4                      2                       # What write queue length does an incoming req see
system.mem_ctrls1.wrQLenPdf::5                      2                       # What write queue length does an incoming req see
system.mem_ctrls1.wrQLenPdf::6                      2                       # What write queue length does an incoming req see
system.mem_ctrls1.wrQLenPdf::7                      2                       # What write queue length does an incoming req see
system.mem_ctrls1.wrQLenPdf::8                      2                       # What write queue length does an incoming req see
system.mem_ctrls1.wrQLenPdf::9                      2                       # What write queue length does an incoming req see
system.mem_ctrls1.wrQLenPdf::10                     2                       # What write queue length does an incoming req see
system.mem_ctrls1.wrQLenPdf::11                     2                       # What write queue length does an incoming req see
system.mem_ctrls1.wrQLenPdf::12                     2                       # What write queue length does an incoming req see
system.mem_ctrls1.wrQLenPdf::13                     2                       # What write queue length does an incoming req see
system.mem_ctrls1.wrQLenPdf::14                     2                       # What write queue length does an incoming req see
system.mem_ctrls1.wrQLenPdf::15                  4768                       # What write queue length does an incoming req see
system.mem_ctrls1.wrQLenPdf::16                  4846                       # What write queue length does an incoming req see
system.mem_ctrls1.wrQLenPdf::17                  5557                       # What write queue length does an incoming req see
system.mem_ctrls1.wrQLenPdf::18                  5632                       # What write queue length does an incoming req see
system.mem_ctrls1.wrQLenPdf::19                  5643                       # What write queue length does an incoming req see
system.mem_ctrls1.wrQLenPdf::20                  5654                       # What write queue length does an incoming req see
system.mem_ctrls1.wrQLenPdf::21                  5651                       # What write queue length does an incoming req see
system.mem_ctrls1.wrQLenPdf::22                  5661                       # What write queue length does an incoming req see
system.mem_ctrls1.wrQLenPdf::23                  5673                       # What write queue length does an incoming req see
system.mem_ctrls1.wrQLenPdf::24                  5654                       # What write queue length does an incoming req see
system.mem_ctrls1.wrQLenPdf::25                  5651                       # What write queue length does an incoming req see
system.mem_ctrls1.wrQLenPdf::26                  5659                       # What write queue length does an incoming req see
system.mem_ctrls1.wrQLenPdf::27                  5646                       # What write queue length does an incoming req see
system.mem_ctrls1.wrQLenPdf::28                  5646                       # What write queue length does an incoming req see
system.mem_ctrls1.wrQLenPdf::29                  5638                       # What write queue length does an incoming req see
system.mem_ctrls1.wrQLenPdf::30                  5651                       # What write queue length does an incoming req see
system.mem_ctrls1.wrQLenPdf::31                  5628                       # What write queue length does an incoming req see
system.mem_ctrls1.wrQLenPdf::32                  5624                       # What write queue length does an incoming req see
system.mem_ctrls1.wrQLenPdf::33                   133                       # What write queue length does an incoming req see
system.mem_ctrls1.wrQLenPdf::34                    22                       # What write queue length does an incoming req see
system.mem_ctrls1.wrQLenPdf::35                    10                       # What write queue length does an incoming req see
system.mem_ctrls1.wrQLenPdf::36                     4                       # What write queue length does an incoming req see
system.mem_ctrls1.wrQLenPdf::37                     3                       # What write queue length does an incoming req see
system.mem_ctrls1.wrQLenPdf::38                     0                       # What write queue length does an incoming req see
system.mem_ctrls1.wrQLenPdf::39                     0                       # What write queue length does an incoming req see
system.mem_ctrls1.wrQLenPdf::40                     0                       # What write queue length does an incoming req see
system.mem_ctrls1.wrQLenPdf::41                     0                       # What write queue length does an incoming req see
system.mem_ctrls1.wrQLenPdf::42                     0                       # What write queue length does an incoming req see
system.mem_ctrls1.wrQLenPdf::43                     0                       # What write queue length does an incoming req see
system.mem_ctrls1.wrQLenPdf::44                     0                       # What write queue length does an incoming req see
system.mem_ctrls1.wrQLenPdf::45                     0                       # What write queue length does an incoming req see
system.mem_ctrls1.wrQLenPdf::46                     0                       # What write queue length does an incoming req see
system.mem_ctrls1.wrQLenPdf::47                     0                       # What write queue length does an incoming req see
system.mem_ctrls1.wrQLenPdf::48                     0                       # What write queue length does an incoming req see
system.mem_ctrls1.wrQLenPdf::49                     0                       # What write queue length does an incoming req see
system.mem_ctrls1.wrQLenPdf::50                     0                       # What write queue length does an incoming req see
system.mem_ctrls1.wrQLenPdf::51                     0                       # What write queue length does an incoming req see
system.mem_ctrls1.wrQLenPdf::52                     0                       # What write queue length does an incoming req see
system.mem_ctrls1.wrQLenPdf::53                     0                       # What write queue length does an incoming req see
system.mem_ctrls1.wrQLenPdf::54                     0                       # What write queue length does an incoming req see
system.mem_ctrls1.wrQLenPdf::55                     0                       # What write queue length does an incoming req see
system.mem_ctrls1.wrQLenPdf::56                     0                       # What write queue length does an incoming req see
system.mem_ctrls1.wrQLenPdf::57                     0                       # What write queue length does an incoming req see
system.mem_ctrls1.wrQLenPdf::58                     0                       # What write queue length does an incoming req see
system.mem_ctrls1.wrQLenPdf::59                     0                       # What write queue length does an incoming req see
system.mem_ctrls1.wrQLenPdf::60                     0                       # What write queue length does an incoming req see
system.mem_ctrls1.wrQLenPdf::61                     0                       # What write queue length does an incoming req see
system.mem_ctrls1.wrQLenPdf::62                     0                       # What write queue length does an incoming req see
system.mem_ctrls1.wrQLenPdf::63                     0                       # What write queue length does an incoming req see
system.mem_ctrls1.bytesPerActivate::samples       232198                       # Bytes accessed per row activation
system.mem_ctrls1.bytesPerActivate::mean    72.945193                       # Bytes accessed per row activation
system.mem_ctrls1.bytesPerActivate::gmean    68.434842                       # Bytes accessed per row activation
system.mem_ctrls1.bytesPerActivate::stdev    54.120674                       # Bytes accessed per row activation
system.mem_ctrls1.bytesPerActivate::0-127       214657     92.45%     92.45% # Bytes accessed per row activation
system.mem_ctrls1.bytesPerActivate::128-255        15475      6.66%     99.11% # Bytes accessed per row activation
system.mem_ctrls1.bytesPerActivate::256-383          804      0.35%     99.46% # Bytes accessed per row activation
system.mem_ctrls1.bytesPerActivate::384-511          279      0.12%     99.58% # Bytes accessed per row activation
system.mem_ctrls1.bytesPerActivate::512-639          195      0.08%     99.66% # Bytes accessed per row activation
system.mem_ctrls1.bytesPerActivate::640-767          268      0.12%     99.78% # Bytes accessed per row activation
system.mem_ctrls1.bytesPerActivate::768-895          152      0.07%     99.84% # Bytes accessed per row activation
system.mem_ctrls1.bytesPerActivate::896-1023          105      0.05%     99.89% # Bytes accessed per row activation
system.mem_ctrls1.bytesPerActivate::1024-1151          263      0.11%    100.00% # Bytes accessed per row activation
system.mem_ctrls1.bytesPerActivate::total       232198                       # Bytes accessed per row activation
system.mem_ctrls1.rdPerTurnAround::samples         5625                       # Reads before turning the bus around for writes
system.mem_ctrls1.rdPerTurnAround::mean     29.258844                       # Reads before turning the bus around for writes
system.mem_ctrls1.rdPerTurnAround::stdev   348.536425                       # Reads before turning the bus around for writes
system.mem_ctrls1.rdPerTurnAround::0-1023         5624     99.98%     99.98% # Reads before turning the bus around for writes
system.mem_ctrls1.rdPerTurnAround::25600-26623            1      0.02%    100.00% # Reads before turning the bus around for writes
system.mem_ctrls1.rdPerTurnAround::total         5625                       # Reads before turning the bus around for writes
system.mem_ctrls1.wrPerTurnAround::samples         5625                       # Writes before turning the bus around for reads
system.mem_ctrls1.wrPerTurnAround::mean     17.789511                       # Writes before turning the bus around for reads
system.mem_ctrls1.wrPerTurnAround::gmean    17.770513                       # Writes before turning the bus around for reads
system.mem_ctrls1.wrPerTurnAround::stdev     0.811193                       # Writes before turning the bus around for reads
system.mem_ctrls1.wrPerTurnAround::16             788     14.01%     14.01% # Writes before turning the bus around for reads
system.mem_ctrls1.wrPerTurnAround::17              62      1.10%     15.11% # Writes before turning the bus around for reads
system.mem_ctrls1.wrPerTurnAround::18            4402     78.26%     93.37% # Writes before turning the bus around for reads
system.mem_ctrls1.wrPerTurnAround::19             325      5.78%     99.15% # Writes before turning the bus around for reads
system.mem_ctrls1.wrPerTurnAround::20              31      0.55%     99.70% # Writes before turning the bus around for reads
system.mem_ctrls1.wrPerTurnAround::21               8      0.14%     99.84% # Writes before turning the bus around for reads
system.mem_ctrls1.wrPerTurnAround::22               5      0.09%     99.93% # Writes before turning the bus around for reads
system.mem_ctrls1.wrPerTurnAround::23               2      0.04%     99.96% # Writes before turning the bus around for reads
system.mem_ctrls1.wrPerTurnAround::24               1      0.02%     99.98% # Writes before turning the bus around for reads
system.mem_ctrls1.wrPerTurnAround::25               1      0.02%    100.00% # Writes before turning the bus around for reads
system.mem_ctrls1.wrPerTurnAround::total         5625                       # Writes before turning the bus around for reads
system.mem_ctrls1.totQLat                 29854981306                       # Total ticks spent queuing
system.mem_ctrls1.totMemAccLat            32940968806                       # Total ticks spent from burst creation until serviced by the DRAM
system.mem_ctrls1.totBusLat                 822930000                       # Total ticks spent in databus transfers
system.mem_ctrls1.avgQLat                   181394.42                       # Average queueing delay per DRAM burst
system.mem_ctrls1.avgBusLat                   5000.00                       # Average bus latency per DRAM burst
system.mem_ctrls1.avgMemAccLat              200144.42                       # Average memory access latency per DRAM burst
system.mem_ctrls1.avgRdBW                        8.43                       # Average DRAM read bandwidth in MiByte/s
system.mem_ctrls1.avgWrBW                        5.13                       # Average achieved write bandwidth in MiByte/s
system.mem_ctrls1.avgRdBWSys                     8.44                       # Average system read bandwidth in MiByte/s
system.mem_ctrls1.avgWrBWSys                     5.13                       # Average system write bandwidth in MiByte/s
system.mem_ctrls1.peakBW                     12800.00                       # Theoretical peak bandwidth in MiByte/s
system.mem_ctrls1.busUtil                        0.11                       # Data bus utilization in percentage
system.mem_ctrls1.busUtilRead                    0.07                       # Data bus utilization in percentage for reads
system.mem_ctrls1.busUtilWrite                   0.04                       # Data bus utilization in percentage for writes
system.mem_ctrls1.avgRdQLen                      1.01                       # Average read queue length when enqueuing
system.mem_ctrls1.avgWrQLen                     21.06                       # Average write queue length when enqueuing
system.mem_ctrls1.readRowHits                   22086                       # Number of row buffer hits during reads
system.mem_ctrls1.writeRowHits                  10368                       # Number of row buffer hits during writes
system.mem_ctrls1.readRowHitRate                13.42                       # Row buffer hit rate for reads
system.mem_ctrls1.writeRowHitRate               10.36                       # Row buffer hit rate for writes
system.mem_ctrls1.avgGap                   4717863.79                       # Average gap between requests
system.mem_ctrls1.pageHitRate                   12.26                       # Row buffer hit rate, read and write combined
system.mem_ctrls1_0.actEnergy               832281240                       # Energy for activate commands per rank (pJ)
system.mem_ctrls1_0.preEnergy               442367970                       # Energy for precharge commands per rank (pJ)
system.mem_ctrls1_0.readEnergy              591541860                       # Energy for read commands per rank (pJ)
system.mem_ctrls1_0.writeEnergy             260890380                       # Energy for write commands per rank (pJ)
system.mem_ctrls1_0.refreshEnergy        63080503200.000015                       # Energy for refresh commands per rank (pJ)
system.mem_ctrls1_0.actBackEnergy         22220329950                       # Energy for active background per rank (pJ)
system.mem_ctrls1_0.preBackEnergy          3674389920                       # Energy for precharge background per rank (pJ)
system.mem_ctrls1_0.actPowerDownEnergy   125615563170                       # Energy for active power-down per rank (pJ)
system.mem_ctrls1_0.prePowerDownEnergy   104506549920                       # Energy for precharge power-down per rank (pJ)
system.mem_ctrls1_0.selfRefreshEnergy    169060844490                       # Energy for self refresh per rank (pJ)
system.mem_ctrls1_0.totalEnergy          490313431860                       # Total energy per rank (pJ)
system.mem_ctrls1_0.averagePower           392.563674                       # Core power per rank (mW)
system.mem_ctrls1_0.totalIdleTime        1190597249688                       # Total Idle time Per DRAM Rank
system.mem_ctrls1_0.memoryStateTime::IDLE   7344967870                       # Time in different power states
system.mem_ctrls1_0.memoryStateTime::REF  26846586000                       # Time in different power states
system.mem_ctrls1_0.memoryStateTime::SREF 643018104364                       # Time in different power states
system.mem_ctrls1_0.memoryStateTime::PRE_PDN 272152407524                       # Time in different power states
system.mem_ctrls1_0.memoryStateTime::ACT  24168689077                       # Time in different power states
system.mem_ctrls1_0.memoryStateTime::ACT_PDN 275472794029                       # Time in different power states
system.mem_ctrls1_1.actEnergy               825612480                       # Energy for activate commands per rank (pJ)
system.mem_ctrls1_1.preEnergy               438823440                       # Energy for precharge commands per rank (pJ)
system.mem_ctrls1_1.readEnergy              583602180                       # Energy for read commands per rank (pJ)
system.mem_ctrls1_1.writeEnergy             261454140                       # Energy for write commands per rank (pJ)
system.mem_ctrls1_1.refreshEnergy        62919467520.000015                       # Energy for refresh commands per rank (pJ)
system.mem_ctrls1_1.actBackEnergy         22007502210                       # Energy for active background per rank (pJ)
system.mem_ctrls1_1.preBackEnergy          3678571680                       # Energy for precharge background per rank (pJ)
system.mem_ctrls1_1.actPowerDownEnergy   124765425270                       # Energy for active power-down per rank (pJ)
system.mem_ctrls1_1.prePowerDownEnergy   104442488640                       # Energy for precharge power-down per rank (pJ)
system.mem_ctrls1_1.selfRefreshEnergy    169692052140                       # Energy for self refresh per rank (pJ)
system.mem_ctrls1_1.totalEnergy          489645346380                       # Total energy per rank (pJ)
system.mem_ctrls1_1.averagePower           392.028781                       # Core power per rank (mW)
system.mem_ctrls1_1.totalIdleTime        1191081244091                       # Total Idle time Per DRAM Rank
system.mem_ctrls1_1.memoryStateTime::IDLE   7368244049                       # Time in different power states
system.mem_ctrls1_1.memoryStateTime::REF  26778826000                       # Time in different power states
system.mem_ctrls1_1.memoryStateTime::SREF 645500367114                       # Time in different power states
system.mem_ctrls1_1.memoryStateTime::PRE_PDN 271985703839                       # Time in different power states
system.mem_ctrls1_1.memoryStateTime::ACT  23761945651                       # Time in different power states
system.mem_ctrls1_1.memoryStateTime::ACT_PDN 273608462211                       # Time in different power states
system.pwrStateResidencyTicks::UNDEFINED 18902344939794                       # Cumulative time (in ticks) in various power states
system.cpu.branchPred.lookups                       3                       # Number of BP lookups
system.cpu.branchPred.condPredicted                 1                       # Number of conditional branches predicted
system.cpu.branchPred.condIncorrect                 1                       # Number of conditional branches incorrect
system.cpu.branchPred.BTBLookups                    2                       # Number of BTB lookups
system.cpu.branchPred.BTBHits                       0                       # Number of BTB hits
system.cpu.branchPred.BTBCorrect                    0                       # Number of correct BTB predictions (this stat may not work properly.
system.cpu.branchPred.BTBHitPct              0.000000                       # BTB Hit Percentage
system.cpu.branchPred.usedRAS                       0                       # Number of times the RAS was used to get a target.
system.cpu.branchPred.RASInCorrect                  0                       # Number of incorrect RAS predictions.
system.cpu.branchPred.indirectLookups               0                       # Number of indirect predictor lookups.
system.cpu.branchPred.indirectHits                  0                       # Number of indirect target hits.
system.cpu.branchPred.indirectMisses                0                       # Number of indirect misses.
system.cpu.branchPredindirectMispredicted            0                       # Number of mispredicted indirect branches.
system.cpu_voltage_domain.voltage                   1                       # Voltage in Volts
system.cpu_clk_domain.clock                       333                       # Clock period in ticks
system.cpu.dtb.fetch_hits                           0                       # ITB hits
system.cpu.dtb.fetch_misses                         0                       # ITB misses
system.cpu.dtb.fetch_acv                            0                       # ITB acv
system.cpu.dtb.fetch_accesses                       0                       # ITB accesses
system.cpu.dtb.read_hits                            3                       # DTB read hits
system.cpu.dtb.read_misses                          0                       # DTB read misses
system.cpu.dtb.read_acv                             0                       # DTB read access violations
system.cpu.dtb.read_accesses                        3                       # DTB read accesses
system.cpu.dtb.write_hits                          11                       # DTB write hits
system.cpu.dtb.write_misses                         0                       # DTB write misses
system.cpu.dtb.write_acv                            0                       # DTB write access violations
system.cpu.dtb.write_accesses                      11                       # DTB write accesses
system.cpu.dtb.data_hits                           14                       # DTB hits
system.cpu.dtb.data_misses                          0                       # DTB misses
system.cpu.dtb.data_acv                             0                       # DTB access violations
system.cpu.dtb.data_accesses                       14                       # DTB accesses
system.cpu.itb.fetch_hits                           6                       # ITB hits
system.cpu.itb.fetch_misses                         0                       # ITB misses
system.cpu.itb.fetch_acv                            0                       # ITB acv
system.cpu.itb.fetch_accesses                       6                       # ITB accesses
system.cpu.itb.read_hits                            0                       # DTB read hits
system.cpu.itb.read_misses                          0                       # DTB read misses
system.cpu.itb.read_acv                             0                       # DTB read access violations
system.cpu.itb.read_accesses                        0                       # DTB read accesses
system.cpu.itb.write_hits                           0                       # DTB write hits
system.cpu.itb.write_misses                         0                       # DTB write misses
system.cpu.itb.write_acv                            0                       # DTB write access violations
system.cpu.itb.write_accesses                       0                       # DTB write accesses
system.cpu.itb.data_hits                            0                       # DTB hits
system.cpu.itb.data_misses                          0                       # DTB misses
system.cpu.itb.data_acv                             0                       # DTB access violations
system.cpu.itb.data_accesses                        0                       # DTB accesses
system.cpu.workload.num_syscalls                    0                       # Number of system calls
system.cpu.pwrStateResidencyTicks::ON    1249003548864                       # Cumulative time (in ticks) in various power states
system.cpu.numCycles                             1491                       # number of cpu cycles simulated
system.cpu.numWorkItemsStarted                      0                       # number of work items this cpu started
system.cpu.numWorkItemsCompleted                    0                       # number of work items this cpu completed
system.cpu.fetch.icacheStallCycles                 63                       # Number of cycles fetch is stalled on an Icache miss
system.cpu.fetch.Insts                             31                       # Number of instructions fetch has processed
system.cpu.fetch.Branches                           3                       # Number of branches that fetch encountered
system.cpu.fetch.Cycles                             5                       # Number of cycles fetch has run and was not squashing or blocked
system.cpu.fetch.SquashCycles                       5                       # Number of cycles fetch has spent squashing
system.cpu.fetch.PendingDrainCycles                 8                       # Number of cycles fetch has spent waiting on pipes to drain
system.cpu.fetch.CacheLines                         6                       # Number of cache lines fetched
system.cpu.fetch.IcacheSquashes                     3                       # Number of outstanding Icache misses that were squashed
system.cpu.fetch.rateDist::samples                 78                       # Number of instructions fetched each cycle (Total)
system.cpu.fetch.rateDist::mean              0.397436                       # Number of instructions fetched each cycle (Total)
system.cpu.fetch.rateDist::stdev             1.646245                       # Number of instructions fetched each cycle (Total)
system.cpu.fetch.rateDist::underflows               0      0.00%      0.00% # Number of instructions fetched each cycle (Total)
system.cpu.fetch.rateDist::0                       73     93.59%     93.59% # Number of instructions fetched each cycle (Total)
system.cpu.fetch.rateDist::1                        0      0.00%     93.59% # Number of instructions fetched each cycle (Total)
system.cpu.fetch.rateDist::2                        1      1.28%     94.87% # Number of instructions fetched each cycle (Total)
system.cpu.fetch.rateDist::3                        0      0.00%     94.87% # Number of instructions fetched each cycle (Total)
system.cpu.fetch.rateDist::4                        0      0.00%     94.87% # Number of instructions fetched each cycle (Total)
system.cpu.fetch.rateDist::5                        1      1.28%     96.15% # Number of instructions fetched each cycle (Total)
[...]
system.switch_cpus_1.iq.int_inst_queue_writes    863956028                       # Number of integer instruction queue writes
system.switch_cpus_1.iq.int_inst_queue_wakeup_accesses    593458078                       # Number of integer instruction queue wakeup accesses
system.switch_cpus_1.iq.fp_inst_queue_reads     26241776                       # Number of floating instruction queue reads
system.switch_cpus_1.iq.fp_inst_queue_writes     18786076                       # Number of floating instruction queue writes
system.switch_cpus_1.iq.fp_inst_queue_wakeup_accesses     12815356                       # Number of floating instruction queue wakeup accesses
system.switch_cpus_1.iq.int_alu_accesses    636066415                       # Number of integer alu accesses
system.switch_cpus_1.iq.fp_alu_accesses      13184401                       # Number of floating point alu accesses
system.switch_cpus_1.iew.lsq.thread0.forwLoads      6286858                       # Number of loads that had data forwarded from stores
system.switch_cpus_1.iew.lsq.thread0.invAddrLoads            0                       # Number of loads ignored due to an invalid address
system.switch_cpus_1.iew.lsq.thread0.squashedLoads     43713008                       # Number of loads squashed
system.switch_cpus_1.iew.lsq.thread0.ignoredResponses        81101                       # Number of memory responses ignored because the instruction is squashed
system.switch_cpus_1.iew.lsq.thread0.memOrderViolation        79029                       # Number of memory ordering violations
system.switch_cpus_1.iew.lsq.thread0.squashedStores     12580287                       # Number of stores squashed
system.switch_cpus_1.iew.lsq.thread0.invAddrSwpfs            0                       # Number of software prefetches ignored due to an invalid address
system.switch_cpus_1.iew.lsq.thread0.blockedLoads            0                       # Number of blocked loads due to partial load-store forwarding
system.switch_cpus_1.iew.lsq.thread0.rescheduledLoads        51392                       # Number of loads that were rescheduled
system.switch_cpus_1.iew.lsq.thread0.cacheBlocked      5518827                       # Number of times an access to memory failed due to the cache being blocked
system.switch_cpus_1.iew.iewIdleCycles              0                       # Number of cycles IEW is idle
system.switch_cpus_1.iew.iewSquashCycles      8538427                       # Number of cycles IEW is squashing
system.switch_cpus_1.iew.iewBlockCycles      51577033                       # Number of cycles IEW is blocking
system.switch_cpus_1.iew.iewUnblockCycles      9416307                       # Number of cycles IEW is unblocking
system.switch_cpus_1.iew.iewDispatchedInsts    707961455                       # Number of instructions dispatched to IQ
system.switch_cpus_1.iew.iewDispSquashedInsts      2975266                       # Number of squashed instructions skipped by dispatch
system.switch_cpus_1.iew.iewDispLoadInsts    150841277                       # Number of dispatched load instructions
system.switch_cpus_1.iew.iewDispStoreInsts     60997967                       # Number of dispatched store instructions
system.switch_cpus_1.iew.iewDispNonSpecInsts         1441                       # Number of dispatched non-speculative instructions
system.switch_cpus_1.iew.iewIQFullEvents       102866                       # Number of times the IQ has become full, causing a stall
system.switch_cpus_1.iew.iewLSQFullEvents      8994010                       # Number of times the LSQ has become full, causing a stall
system.switch_cpus_1.iew.memOrderViolationEvents        79029                       # Number of memory order violations
system.switch_cpus_1.iew.predictedTakenIncorrect      4879664                       # Number of branches that were predicted taken incorrectly
system.switch_cpus_1.iew.predictedNotTakenIncorrect      4599788                       # Number of branches that were predicted not taken incorrectly
system.switch_cpus_1.iew.branchMispredicts      9479452                       # Number of branch mispredicts detected at execute
system.switch_cpus_1.iew.iewExecutedInsts    622052837                       # Number of executed instructions
system.switch_cpus_1.iew.iewExecLoadInsts    142114315                       # Number of load instructions executed
system.switch_cpus_1.iew.iewExecSquashedInsts     14299732                       # Number of squashed instructions skipped in execute
system.switch_cpus_1.iew.exec_swp                   0                       # number of swp insts executed
system.switch_cpus_1.iew.exec_nop            16627249                       # number of nop insts executed
system.switch_cpus_1.iew.exec_refs          197120155                       # number of memory reference insts executed
system.switch_cpus_1.iew.exec_branches       94677964                       # Number of branches executed
system.switch_cpus_1.iew.exec_stores         55005840                       # Number of stores executed
system.switch_cpus_1.iew.exec_rate           1.293775                       # Inst execution rate
system.switch_cpus_1.iew.wb_sent            610058027                       # cumulative count of insts sent to commit
system.switch_cpus_1.iew.wb_count           606273434                       # cumulative count of insts written-back
system.switch_cpus_1.iew.wb_producers       349394262                       # num instructions producing a value
system.switch_cpus_1.iew.wb_consumers       442788491                       # num instructions consuming a value
system.switch_cpus_1.iew.wb_rate             1.260957                       # insts written-back per cycle
system.switch_cpus_1.iew.wb_fanout           0.789077                       # average fanout of values written-back
system.switch_cpus_1.commit.commitSquashedInsts    192411168                       # The number of squashed insts skipped by commit
system.switch_cpus_1.commit.commitNonSpecStalls         1564                       # The number of times commit has been forced to stall to communicate backwards
system.switch_cpus_1.commit.branchMispredicts      8324208                       # The number of times a branch was mispredicted
system.switch_cpus_1.commit.committed_per_cycle::samples    415320495                       # Number of insts commited each cycle
system.switch_cpus_1.commit.committed_per_cycle::mean     1.235485                       # Number of insts commited each cycle
system.switch_cpus_1.commit.committed_per_cycle::stdev     2.336539                       # Number of insts commited each cycle
system.switch_cpus_1.commit.committed_per_cycle::underflows            0      0.00%      0.00% # Number of insts commited each cycle
system.switch_cpus_1.commit.committed_per_cycle::0    265676982     63.97%     63.97% # Number of insts commited each cycle
system.switch_cpus_1.commit.committed_per_cycle::1     60836167     14.65%     78.62% # Number of insts commited each cycle
system.switch_cpus_1.commit.committed_per_cycle::2     20252251      4.88%     83.49% # Number of insts commited each cycle
system.switch_cpus_1.commit.committed_per_cycle::3     13765755      3.31%     86.81% # Number of insts commited each cycle
system.switch_cpus_1.commit.committed_per_cycle::4      7732082      1.86%     88.67% # Number of insts commited each cycle
system.switch_cpus_1.commit.committed_per_cycle::5      7009771      1.69%     90.36% # Number of insts commited each cycle
system.switch_cpus_1.commit.committed_per_cycle::6      5859563      1.41%     91.77% # Number of insts commited each cycle
system.switch_cpus_1.commit.committed_per_cycle::7      4153600      1.00%     92.77% # Number of insts commited each cycle
system.switch_cpus_1.commit.committed_per_cycle::8     30034324      7.23%    100.00% # Number of insts commited each cycle
system.switch_cpus_1.commit.committed_per_cycle::overflows            0      0.00%    100.00% # Number of insts commited each cycle
system.switch_cpus_1.commit.committed_per_cycle::min_value            0                       # Number of insts commited each cycle
system.switch_cpus_1.commit.committed_per_cycle::max_value            8                       # Number of insts commited each cycle
system.switch_cpus_1.commit.committed_per_cycle::total    415320495                       # Number of insts commited each cycle
system.switch_cpus_1.commit.committedInsts    513122287                       # Number of instructions committed
system.switch_cpus_1.commit.committedOps    513122287                       # Number of ops (including micro ops) committed
system.switch_cpus_1.commit.swp_count               0                       # Number of s/w prefetches committed
system.switch_cpus_1.commit.refs            155545944                       # Number of memory references committed
system.switch_cpus_1.commit.loads           107128264                       # Number of loads committed
system.switch_cpus_1.commit.membars               782                       # Number of memory barriers committed
system.switch_cpus_1.commit.branches         79583286                       # Number of branches committed
system.switch_cpus_1.commit.fp_insts         11632020                       # Number of committed floating point instructions.
system.switch_cpus_1.commit.int_insts       487558660                       # Number of committed integer instructions.
system.switch_cpus_1.commit.function_calls      3555386                       # Number of function calls committed.
system.switch_cpus_1.commit.op_class_0::No_OpClass     13292047      2.59%      2.59% # Class of committed instruction
system.switch_cpus_1.commit.op_class_0::IntAlu    334471933     65.18%     67.77% # Class of committed instruction
system.switch_cpus_1.commit.op_class_0::IntMult       177052      0.03%     67.81% # Class of committed instruction
system.switch_cpus_1.commit.op_class_0::IntDiv            0      0.00%     67.81% # Class of committed instruction
system.switch_cpus_1.commit.op_class_0::FloatAdd      4435607      0.86%     68.67% # Class of committed instruction
system.switch_cpus_1.commit.op_class_0::FloatCmp      3623622      0.71%     69.38% # Class of committed instruction
system.switch_cpus_1.commit.op_class_0::FloatCvt      1489216      0.29%     69.67% # Class of committed instruction
system.switch_cpus_1.commit.op_class_0::FloatMult            0      0.00%     69.67% # Class of committed instruction
system.switch_cpus_1.commit.op_class_0::FloatMultAcc            0      0.00%     69.67% # Class of committed instruction
system.switch_cpus_1.commit.op_class_0::FloatDiv        86084      0.02%     69.69% # Class of committed instruction
system.switch_cpus_1.commit.op_class_0::FloatMisc            0      0.00%     69.69% # Class of committed instruction
system.switch_cpus_1.commit.op_class_0::FloatSqrt            0      0.00%     69.69% # Class of committed instruction
system.switch_cpus_1.commit.op_class_0::SimdAdd            0      0.00%     69.69% # Class of committed instruction
system.switch_cpus_1.commit.op_class_0::SimdAddAcc            0      0.00%     69.69% # Class of committed instruction
system.switch_cpus_1.commit.op_class_0::SimdAlu            0      0.00%     69.69% # Class of committed instruction
system.switch_cpus_1.commit.op_class_0::SimdCmp            0      0.00%     69.69% # Class of committed instruction
system.switch_cpus_1.commit.op_class_0::SimdCvt            0      0.00%     69.69% # Class of committed instruction
system.switch_cpus_1.commit.op_class_0::SimdMisc            0      0.00%     69.69% # Class of committed instruction
system.switch_cpus_1.commit.op_class_0::SimdMult            0      0.00%     69.69% # Class of committed instruction
system.switch_cpus_1.commit.op_class_0::SimdMultAcc            0      0.00%     69.69% # Class of committed instruction
system.switch_cpus_1.commit.op_class_0::SimdShift            0      0.00%     69.69% # Class of committed instruction
system.switch_cpus_1.commit.op_class_0::SimdShiftAcc            0      0.00%     69.69% # Class of committed instruction
system.switch_cpus_1.commit.op_class_0::SimdSqrt            0      0.00%     69.69% # Class of committed instruction
system.switch_cpus_1.commit.op_class_0::SimdFloatAdd            0      0.00%     69.69% # Class of committed instruction
system.switch_cpus_1.commit.op_class_0::SimdFloatAlu            0      0.00%     69.69% # Class of committed instruction
system.switch_cpus_1.commit.op_class_0::SimdFloatCmp            0      0.00%     69.69% # Class of committed instruction
system.switch_cpus_1.commit.op_class_0::SimdFloatCvt            0      0.00%     69.69% # Class of committed instruction
system.switch_cpus_1.commit.op_class_0::SimdFloatDiv            0      0.00%     69.69% # Class of committed instruction
system.switch_cpus_1.commit.op_class_0::SimdFloatMisc            0      0.00%     69.69% # Class of committed instruction
system.switch_cpus_1.commit.op_class_0::SimdFloatMult            0      0.00%     69.69% # Class of committed instruction
system.switch_cpus_1.commit.op_class_0::SimdFloatMultAcc            0      0.00%     69.69% # Class of committed instruction
system.switch_cpus_1.commit.op_class_0::SimdFloatSqrt            0      0.00%     69.69% # Class of committed instruction
system.switch_cpus_1.commit.op_class_0::MemRead    105516381     20.56%     90.25% # Class of committed instruction
system.switch_cpus_1.commit.op_class_0::MemWrite     48032854      9.36%     99.61% # Class of committed instruction
system.switch_cpus_1.commit.op_class_0::FloatMemRead      1612665      0.31%     99.93% # Class of committed instruction
system.switch_cpus_1.commit.op_class_0::FloatMemWrite       384826      0.07%    100.00% # Class of committed instruction
system.switch_cpus_1.commit.op_class_0::IprAccess            0      0.00%    100.00% # Class of committed instruction
system.switch_cpus_1.commit.op_class_0::InstPrefetch            0      0.00%    100.00% # Class of committed instruction
system.switch_cpus_1.commit.op_class_0::total    513122287                       # Class of committed instruction
system.switch_cpus_1.commit.bw_lim_events     30034324                       # number cycles where commit BW limit reached
system.switch_cpus_1.rob.rob_reads         1088773686                       # The number of ROB reads
system.switch_cpus_1.rob.rob_writes        1440379310                       # The number of ROB writes
system.switch_cpus_1.timesIdled               2091315                       # Number of times that the entire CPU went into an idle state and unscheduled itself
system.switch_cpus_1.idleCycles              36348173                       # Total number of cycles that the CPU has spent unscheduled due to idling
system.switch_cpus_1.committedInsts         500000000                       # Number of Instructions Simulated
system.switch_cpus_1.committedOps           500000000                       # Number of Ops (including micro ops) Simulated
system.switch_cpus_1.cpi                     0.961609                       # CPI: Cycles Per Instruction
system.switch_cpus_1.cpi_total               0.961609                       # CPI: Total CPI of All Threads
system.switch_cpus_1.ipc                     1.039924                       # IPC: Instructions Per Cycle
system.switch_cpus_1.ipc_total               1.039924                       # IPC: Total IPC of All Threads
system.switch_cpus_1.int_regfile_reads      824738931                       # number of integer regfile reads
system.switch_cpus_1.int_regfile_writes     455198916                       # number of integer regfile writes
system.switch_cpus_1.fp_regfile_reads        16587290                       # number of floating regfile reads
system.switch_cpus_1.fp_regfile_writes        8275912                       # number of floating regfile writes
system.switch_cpus_1.misc_regfile_reads        171544                       # number of misc regfile reads
system.switch_cpus_1.misc_regfile_writes        86444                       # number of misc regfile writes
system.tol3bus.snoop_filter.tot_requests      4708744                       # Total number of requests made to the snoop filter.
system.tol3bus.snoop_filter.hit_single_requests      2352376                       # Number of requests hitting in the snoop filter with a single holder of the requested data.
system.tol3bus.snoop_filter.hit_multi_requests            0                       # Number of requests hitting in the snoop filter with multiple (>1) holders of the requested data.
system.tol3bus.snoop_filter.tot_snoops           1341                       # Total number of snoops made to the snoop filter.
system.tol3bus.snoop_filter.hit_single_snoops         1341                       # Number of snoops hitting in the snoop filter with a single holder of the requested data.
system.tol3bus.snoop_filter.hit_multi_snoops            0                       # Number of snoops hitting in the snoop filter with multiple (>1) holders of the requested data.
system.tol3bus.pwrStateResidencyTicks::UNDEFINED 18902344939794                       # Cumulative time (in ticks) in various power states
system.tol3bus.trans_dist::ReadResp           1655864                       # Transaction distribution
system.tol3bus.trans_dist::WritebackDirty      1467227                       # Transaction distribution
system.tol3bus.trans_dist::CleanEvict         1148382                       # Transaction distribution
system.tol3bus.trans_dist::ReadExReq           700504                       # Transaction distribution
system.tol3bus.trans_dist::ReadExResp          700504                       # Transaction distribution
system.tol3bus.trans_dist::ReadSharedReq      1655864                       # Transaction distribution
system.tol3bus.pkt_count_system.cpu.l2.mem_side::system.l3.cpu_side      7065112                       # Packet count per connected master and slave (bytes)
system.tol3bus.pkt_size_system.cpu.l2.mem_side::system.l3.cpu_side    231930112                       # Cumulative packet size per connected master and slave (bytes)
system.tol3bus.snoops                          263233                       # Total snoops (count)
system.tol3bus.snoopTraffic                  12779968                       # Total snoop traffic (bytes)
system.tol3bus.snoop_fanout::samples          2619601                       # Request fanout histogram
system.tol3bus.snoop_fanout::mean            0.000512                       # Request fanout histogram
system.tol3bus.snoop_fanout::stdev           0.022620                       # Request fanout histogram
system.tol3bus.snoop_fanout::underflows             0      0.00%      0.00% # Request fanout histogram
system.tol3bus.snoop_fanout::0                2618260     99.95%     99.95% # Request fanout histogram
system.tol3bus.snoop_fanout::1                   1341      0.05%    100.00% # Request fanout histogram
system.tol3bus.snoop_fanout::overflows              0      0.00%    100.00% # Request fanout histogram
system.tol3bus.snoop_fanout::min_value              0                       # Request fanout histogram
system.tol3bus.snoop_fanout::max_value              1                       # Request fanout histogram
system.tol3bus.snoop_fanout::total            2619601                       # Request fanout histogram
system.tol3bus.reqLayer0.occupancy         1990102572                       # Layer occupancy (ticks)
system.tol3bus.reqLayer0.utilization              0.2                       # Layer utilization (%)
system.tol3bus.respLayer0.occupancy        1569341088                       # Layer occupancy (ticks)
system.tol3bus.respLayer0.utilization             0.1                       # Layer utilization (%)

---------- End Simulation Statistics   ----------
