
---------- Begin Simulation Statistics ----------
sim_seconds                                 31.012887                       # Number of seconds simulated
sim_ticks                                31012887308337                       # Number of ticks simulated
final_tick                               193095070470837                       # Number of ticks from beginning of simulation (restored from checkpoints and never reset)
sim_freq                                 1000000000000                       # Frequency of simulated ticks
host_inst_rate                                  12573                       # Simulator instruction rate (inst/s)
host_op_rate                                    12573                       # Simulator op (including micro ops) rate (op/s)
host_tick_rate                              194967877                       # Simulator tick rate (ticks/s)
host_mem_usage                                2689656                       # Number of bytes of host memory used
host_seconds                                159066.65                       # Real time elapsed on the host
sim_insts                                  2000000005                       # Number of instructions simulated
sim_ops                                    2000000005                       # Number of ops (including micro ops) simulated
system.voltage_domain.voltage                       1                       # Voltage in Volts
system.clk_domain.clock                          1000                       # Clock period in ticks
system.mem_ctrls0.pwrStateResidencyTicks::UNDEFINED 193095070470837                       # Cumulative time (in ticks) in various power states
system.mem_ctrls0.bytes_read::cpu.inst            128                       # Number of bytes read from this memory
system.mem_ctrls0.bytes_read::switch_cpus.inst         1472                       # Number of bytes read from this memory
system.mem_ctrls0.bytes_read::switch_cpus.data   1948533632                       # Number of bytes read from this memory
system.mem_ctrls0.bytes_read::switch_cpus_1.inst          384                       # Number of bytes read from this memory
system.mem_ctrls0.bytes_read::switch_cpus_1.data   1948350912                       # Number of bytes read from this memory
system.mem_ctrls0.bytes_read::total        3896886528                       # Number of bytes read from this memory
system.mem_ctrls0.bytes_inst_read::cpu.inst          128                       # Number of instructions bytes read from this memory
system.mem_ctrls0.bytes_inst_read::switch_cpus.inst         1472                       # Number of instructions bytes read from this memory
system.mem_ctrls0.bytes_inst_read::switch_cpus_1.inst          384                       # Number of instructions bytes read from this memory
system.mem_ctrls0.bytes_inst_read::total         1984                       # Number of instructions bytes read from this memory
system.mem_ctrls0.bytes_written::writebacks     10369024                       # Number of bytes written to this memory
system.mem_ctrls0.bytes_written::total       10369024                       # Number of bytes written to this memory
system.mem_ctrls0.num_reads::cpu.inst               2                       # Number of read requests responded to by this memory
system.mem_ctrls0.num_reads::switch_cpus.inst           23                       # Number of read requests responded to by this memory
system.mem_ctrls0.num_reads::switch_cpus.data     30445838                       # Number of read requests responded to by this memory
system.mem_ctrls0.num_reads::switch_cpus_1.inst            6                       # Number of read requests responded to by this memory
system.mem_ctrls0.num_reads::switch_cpus_1.data     30442983                       # Number of read requests responded to by this memory
system.mem_ctrls0.num_reads::total           60888852                       # Number of read requests responded to by this memory
system.mem_ctrls0.num_writes::writebacks       162016                       # Number of write requests responded to by this memory
system.mem_ctrls0.num_writes::total            162016                       # Number of write requests responded to by this memory
system.mem_ctrls0.bw_read::cpu.inst                 4                       # Total read bandwidth from this memory (bytes/s)
system.mem_ctrls0.bw_read::switch_cpus.inst           47                       # Total read bandwidth from this memory (bytes/s)
system.mem_ctrls0.bw_read::switch_cpus.data     62829804                       # Total read bandwidth from this memory (bytes/s)
system.mem_ctrls0.bw_read::switch_cpus_1.inst           12                       # Total read bandwidth from this memory (bytes/s)
system.mem_ctrls0.bw_read::switch_cpus_1.data     62823912                       # Total read bandwidth from this memory (bytes/s)
system.mem_ctrls0.bw_read::total            125653780                       # Total read bandwidth from this memory (bytes/s)
system.mem_ctrls0.bw_inst_read::cpu.inst            4                       # Instruction read bandwidth from this memory (bytes/s)
system.mem_ctrls0.bw_inst_read::switch_cpus.inst           47                       # Instruction read bandwidth from this memory (bytes/s)
system.mem_ctrls0.bw_inst_read::switch_cpus_1.inst           12                       # Instruction read bandwidth from this memory (bytes/s)
system.mem_ctrls0.bw_inst_read::total              64                       # Instruction read bandwidth from this memory (bytes/s)
system.mem_ctrls0.bw_write::writebacks         334346                       # Write bandwidth from this memory (bytes/s)
system.mem_ctrls0.bw_write::total              334346                       # Write bandwidth from this memory (bytes/s)
system.mem_ctrls0.bw_total::writebacks         334346                       # Total bandwidth to/from this memory (bytes/s)
system.mem_ctrls0.bw_total::cpu.inst                4                       # Total bandwidth to/from this memory (bytes/s)
system.mem_ctrls0.bw_total::switch_cpus.inst           47                       # Total bandwidth to/from this memory (bytes/s)
system.mem_ctrls0.bw_total::switch_cpus.data     62829804                       # Total bandwidth to/from this memory (bytes/s)
system.mem_ctrls0.bw_total::switch_cpus_1.inst           12                       # Total bandwidth to/from this memory (bytes/s)
system.mem_ctrls0.bw_total::switch_cpus_1.data     62823912                       # Total bandwidth to/from this memory (bytes/s)
system.mem_ctrls0.bw_total::total           125988126                       # Total bandwidth to/from this memory (bytes/s)
system.mem_ctrls0.readReqs                   60888852                       # Number of read requests accepted
system.mem_ctrls0.writeReqs                    162016                       # Number of write requests accepted
system.mem_ctrls0.readBursts                 60888852                       # Number of DRAM read bursts, including those serviced by the write queue
system.mem_ctrls0.writeBursts                  162016                       # Number of DRAM write bursts, including those merged in the write queue
system.mem_ctrls0.bytesReadDRAM            3896102528                       # Total number of bytes read from DRAM
system.mem_ctrls0.bytesReadWrQ                 784000                       # Total number of bytes read from write queue
system.mem_ctrls0.bytesWritten               10342016                       # Total number of bytes written to DRAM
system.mem_ctrls0.bytesReadSys             3896886528                       # Total read bytes from the system interface side
system.mem_ctrls0.bytesWrittenSys            10369024                       # Total written bytes from the system interface side
system.mem_ctrls0.servicedByWrQ                 12250                       # Number of DRAM read bursts serviced by the write queue
system.mem_ctrls0.mergedWrBursts                  400                       # Number of DRAM write bursts merged with an existing one
system.mem_ctrls0.neitherReadNorWriteReqs            0                       # Number of requests that are neither read nor write
system.mem_ctrls0.perBankRdBursts::0          3792561                       # Per bank write bursts
system.mem_ctrls0.perBankRdBursts::1          3803969                       # Per bank write bursts
system.mem_ctrls0.perBankRdBursts::2          3826703                       # Per bank write bursts
system.mem_ctrls0.perBankRdBursts::3          3825293                       # Per bank write bursts
system.mem_ctrls0.perBankRdBursts::4          3820756                       # Per bank write bursts
system.mem_ctrls0.perBankRdBursts::5          3808928                       # Per bank write bursts
system.mem_ctrls0.perBankRdBursts::6          3813062                       # Per bank write bursts
system.mem_ctrls0.perBankRdBursts::7          3793125                       # Per bank write bursts
system.mem_ctrls0.perBankRdBursts::8          3816521                       # Per bank write bursts
system.mem_ctrls0.perBankRdBursts::9          3801898                       # Per bank write bursts
system.mem_ctrls0.perBankRdBursts::10         3807136                       # Per bank write bursts
system.mem_ctrls0.perBankRdBursts::11         3818925                       # Per bank write bursts
system.mem_ctrls0.perBankRdBursts::12         3793771                       # Per bank write bursts
system.mem_ctrls0.perBankRdBursts::13         3792112                       # Per bank write bursts
system.mem_ctrls0.perBankRdBursts::14         3799811                       # Per bank write bursts
system.mem_ctrls0.perBankRdBursts::15         3762031                       # Per bank write bursts
system.mem_ctrls0.perBankWrBursts::0             9651                       # Per bank write bursts
system.mem_ctrls0.perBankWrBursts::1             9780                       # Per bank write bursts
system.mem_ctrls0.perBankWrBursts::2             9632                       # Per bank write bursts
system.mem_ctrls0.perBankWrBursts::3            11407                       # Per bank write bursts
system.mem_ctrls0.perBankWrBursts::4            12559                       # Per bank write bursts
system.mem_ctrls0.perBankWrBursts::5             9841                       # Per bank write bursts
system.mem_ctrls0.perBankWrBursts::6             9733                       # Per bank write bursts
system.mem_ctrls0.perBankWrBursts::7            10208                       # Per bank write bursts
system.mem_ctrls0.perBankWrBursts::8            10454                       # Per bank write bursts
system.mem_ctrls0.perBankWrBursts::9             9765                       # Per bank write bursts
system.mem_ctrls0.perBankWrBursts::10            9946                       # Per bank write bursts
system.mem_ctrls0.perBankWrBursts::11            9812                       # Per bank write bursts
system.mem_ctrls0.perBankWrBursts::12            9662                       # Per bank write bursts
system.mem_ctrls0.perBankWrBursts::13            9753                       # Per bank write bursts
system.mem_ctrls0.perBankWrBursts::14            9715                       # Per bank write bursts
system.mem_ctrls0.perBankWrBursts::15            9676                       # Per bank write bursts
system.mem_ctrls0.numRdRetry                        0                       # Number of times read queue was full causing retry
system.mem_ctrls0.numWrRetry                        0                       # Number of times write queue was full causing retry
system.mem_ctrls0.totGap                 31012886814921                       # Total gap between requests
system.mem_ctrls0.readPktSize::0                    0                       # Read request sizes (log2)
system.mem_ctrls0.readPktSize::1                    0                       # Read request sizes (log2)
system.mem_ctrls0.readPktSize::2                    0                       # Read request sizes (log2)
system.mem_ctrls0.readPktSize::3                    0                       # Read request sizes (log2)
system.mem_ctrls0.readPktSize::4                    0                       # Read request sizes (log2)
system.mem_ctrls0.readPktSize::5                    0                       # Read request sizes (log2)
system.mem_ctrls0.readPktSize::6             60888852                       # Read request sizes (log2)
system.mem_ctrls0.writePktSize::0                   0                       # Write request sizes (log2)
system.mem_ctrls0.writePktSize::1                   0                       # Write request sizes (log2)
system.mem_ctrls0.writePktSize::2                   0                       # Write request sizes (log2)
system.mem_ctrls0.writePktSize::3                   0                       # Write request sizes (log2)
system.mem_ctrls0.writePktSize::4                   0                       # Write request sizes (log2)
system.mem_ctrls0.writePktSize::5                   0                       # Write request sizes (log2)
system.mem_ctrls0.writePktSize::6              162016                       # Write request sizes (log2)
system.mem_ctrls0.rdQLenPdf::0               60825069                       # What read queue length does an incoming req see
system.mem_ctrls0.rdQLenPdf::1                  45970                       # What read queue length does an incoming req see
system.mem_ctrls0.rdQLenPdf::2                   5380                       # What read queue length does an incoming req see
system.mem_ctrls0.rdQLenPdf::3                    183                       # What read queue length does an incoming req see
system.mem_ctrls0.rdQLenPdf::4                      0                       # What read queue length does an incoming req see
system.mem_ctrls0.rdQLenPdf::5                      0                       # What read queue length does an incoming req see
system.mem_ctrls0.rdQLenPdf::6                      0                       # What read queue length does an incoming req see
system.mem_ctrls0.rdQLenPdf::7                      0                       # What read queue length does an incoming req see
system.mem_ctrls0.rdQLenPdf::8                      0                       # What read queue length does an incoming req see
system.mem_ctrls0.rdQLenPdf::9                      0                       # What read queue length does an incoming req see
system.mem_ctrls0.rdQLenPdf::10                     0                       # What read queue length does an incoming req see
system.mem_ctrls0.rdQLenPdf::11                     0                       # What read queue length does an incoming req see
system.mem_ctrls0.rdQLenPdf::12                     0                       # What read queue length does an incoming req see
system.mem_ctrls0.rdQLenPdf::13                     0                       # What read queue length does an incoming req see
system.mem_ctrls0.rdQLenPdf::14                     0                       # What read queue length does an incoming req see
system.mem_ctrls0.rdQLenPdf::15                     0                       # What read queue length does an incoming req see
system.mem_ctrls0.rdQLenPdf::16                     0                       # What read queue length does an incoming req see
system.mem_ctrls0.rdQLenPdf::17                     0                       # What read queue length does an incoming req see
system.mem_ctrls0.rdQLenPdf::18                     0                       # What read queue length does an incoming req see
system.mem_ctrls0.rdQLenPdf::19                     0                       # What read queue length does an incoming req see
system.mem_ctrls0.rdQLenPdf::20                     0                       # What read queue length does an incoming req see
system.mem_ctrls0.rdQLenPdf::21                     0                       # What read queue length does an incoming req see
system.mem_ctrls0.rdQLenPdf::22                     0                       # What read queue length does an incoming req see
system.mem_ctrls0.rdQLenPdf::23                     0                       # What read queue length does an incoming req see
system.mem_ctrls0.rdQLenPdf::24                     0                       # What read queue length does an incoming req see
system.mem_ctrls0.rdQLenPdf::25                     0                       # What read queue length does an incoming req see
system.mem_ctrls0.rdQLenPdf::26                     0                       # What read queue length does an incoming req see
system.mem_ctrls0.rdQLenPdf::27                     0                       # What read queue length does an incoming req see
system.mem_ctrls0.rdQLenPdf::28                     0                       # What read queue length does an incoming req see
system.mem_ctrls0.rdQLenPdf::29                     0                       # What read queue length does an incoming req see
system.mem_ctrls0.rdQLenPdf::30                     0                       # What read queue length does an incoming req see
system.mem_ctrls0.rdQLenPdf::31                     0                       # What read queue length does an incoming req see
system.mem_ctrls0.wrQLenPdf::0                      2                       # What write queue length does an incoming req see
system.mem_ctrls0.wrQLenPdf::1                      2                       # What write queue length does an incoming req see
system.mem_ctrls0.wrQLenPdf::2                      2                       # What write queue length does an incoming req see
system.mem_ctrls0.wrQLenPdf::3                      2                       # What write queue length does an incoming req see
system.mem_ctrls0.wrQLenPdf::4                      2                       # What write queue length does an incoming req see
system.mem_ctrls0.wrQLenPdf::5                      2                       # What write queue length does an incoming req see
system.mem_ctrls0.wrQLenPdf::6                      2                       # What write queue length does an incoming req see
system.mem_ctrls0.wrQLenPdf::7                      2                       # What write queue length does an incoming req see
system.mem_ctrls0.wrQLenPdf::8                      2                       # What write queue length does an incoming req see
system.mem_ctrls0.wrQLenPdf::9                      2                       # What write queue length does an incoming req see
system.mem_ctrls0.wrQLenPdf::10                     2                       # What write queue length does an incoming req see
system.mem_ctrls0.wrQLenPdf::11                     2                       # What write queue length does an incoming req see
system.mem_ctrls0.wrQLenPdf::12                     2                       # What write queue length does an incoming req see
system.mem_ctrls0.wrQLenPdf::13                     2                       # What write queue length does an incoming req see
system.mem_ctrls0.wrQLenPdf::14                     2                       # What write queue length does an incoming req see
system.mem_ctrls0.wrQLenPdf::15                  8387                       # What write queue length does an incoming req see
system.mem_ctrls0.wrQLenPdf::16                  8560                       # What write queue length does an incoming req see
system.mem_ctrls0.wrQLenPdf::17                  9009                       # What write queue length does an incoming req see
system.mem_ctrls0.wrQLenPdf::18                  9024                       # What write queue length does an incoming req see
system.mem_ctrls0.wrQLenPdf::19                  9037                       # What write queue length does an incoming req see
system.mem_ctrls0.wrQLenPdf::20                  9036                       # What write queue length does an incoming req see
system.mem_ctrls0.wrQLenPdf::21                  9036                       # What write queue length does an incoming req see
system.mem_ctrls0.wrQLenPdf::22                  9038                       # What write queue length does an incoming req see
system.mem_ctrls0.wrQLenPdf::23                  9044                       # What write queue length does an incoming req see
system.mem_ctrls0.wrQLenPdf::24                  9037                       # What write queue length does an incoming req see
system.mem_ctrls0.wrQLenPdf::25                  9034                       # What write queue length does an incoming req see
system.mem_ctrls0.wrQLenPdf::26                  9040                       # What write queue length does an incoming req see
system.mem_ctrls0.wrQLenPdf::27                  9042                       # What write queue length does an incoming req see
system.mem_ctrls0.wrQLenPdf::28                  9042                       # What write queue length does an incoming req see
system.mem_ctrls0.wrQLenPdf::29                  9053                       # What write queue length does an incoming req see
system.mem_ctrls0.wrQLenPdf::30                  9109                       # What write queue length does an incoming req see
system.mem_ctrls0.wrQLenPdf::31                  9028                       # What write queue length does an incoming req see
system.mem_ctrls0.wrQLenPdf::32                  9028                       # What write queue length does an incoming req see
system.mem_ctrls0.wrQLenPdf::33                     2                       # What write queue length does an incoming req see
system.mem_ctrls0.wrQLenPdf::34                     0                       # What write queue length does an incoming req see
system.mem_ctrls0.wrQLenPdf::35                     0                       # What write queue length does an incoming req see
system.mem_ctrls0.wrQLenPdf::36                     0                       # What write queue length does an incoming req see
system.mem_ctrls0.wrQLenPdf::37                     0                       # What write queue length does an incoming req see
system.mem_ctrls0.wrQLenPdf::38                     0                       # What write queue length does an incoming req see
system.mem_ctrls0.wrQLenPdf::39                     0                       # What write queue length does an incoming req see
system.mem_ctrls0.wrQLenPdf::40                     0                       # What write queue length does an incoming req see
system.mem_ctrls0.wrQLenPdf::41                     0                       # What write queue length does an incoming req see
system.mem_ctrls0.wrQLenPdf::42                     0                       # What write queue length does an incoming req see
system.mem_ctrls0.wrQLenPdf::43                     0                       # What write queue length does an incoming req see
system.mem_ctrls0.wrQLenPdf::44                     0                       # What write queue length does an incoming req see
system.mem_ctrls0.wrQLenPdf::45                     0                       # What write queue length does an incoming req see
system.mem_ctrls0.wrQLenPdf::46                     0                       # What write queue length does an incoming req see
system.mem_ctrls0.wrQLenPdf::47                     0                       # What write queue length does an incoming req see
system.mem_ctrls0.wrQLenPdf::48                     0                       # What write queue length does an incoming req see
system.mem_ctrls0.wrQLenPdf::49                     0                       # What write queue length does an incoming req see
system.mem_ctrls0.wrQLenPdf::50                     0                       # What write queue length does an incoming req see
system.mem_ctrls0.wrQLenPdf::51                     0                       # What write queue length does an incoming req see
system.mem_ctrls0.wrQLenPdf::52                     0                       # What write queue length does an incoming req see
system.mem_ctrls0.wrQLenPdf::53                     0                       # What write queue length does an incoming req see
system.mem_ctrls0.wrQLenPdf::54                     0                       # What write queue length does an incoming req see
system.mem_ctrls0.wrQLenPdf::55                     0                       # What write queue length does an incoming req see
system.mem_ctrls0.wrQLenPdf::56                     0                       # What write queue length does an incoming req see
system.mem_ctrls0.wrQLenPdf::57                     0                       # What write queue length does an incoming req see
system.mem_ctrls0.wrQLenPdf::58                     0                       # What write queue length does an incoming req see
system.mem_ctrls0.wrQLenPdf::59                     0                       # What write queue length does an incoming req see
system.mem_ctrls0.wrQLenPdf::60                     0                       # What write queue length does an incoming req see
system.mem_ctrls0.wrQLenPdf::61                     0                       # What write queue length does an incoming req see
system.mem_ctrls0.wrQLenPdf::62                     0                       # What write queue length does an incoming req see
system.mem_ctrls0.wrQLenPdf::63                     0                       # What write queue length does an incoming req see
system.mem_ctrls0.bytesPerActivate::samples     60850477                       # Bytes accessed per row activation
system.mem_ctrls0.bytesPerActivate::mean    64.197430                       # Bytes accessed per row activation
system.mem_ctrls0.bytesPerActivate::gmean    64.112819                       # Bytes accessed per row activation
system.mem_ctrls0.bytesPerActivate::stdev     5.497030                       # Bytes accessed per row activation
system.mem_ctrls0.bytesPerActivate::0-127     60724301     99.79%     99.79% # Bytes accessed per row activation
system.mem_ctrls0.bytesPerActivate::128-255       112122      0.18%     99.98% # Bytes accessed per row activation
system.mem_ctrls0.bytesPerActivate::256-383        10302      0.02%     99.99% # Bytes accessed per row activation
system.mem_ctrls0.bytesPerActivate::384-511         2522      0.00%    100.00% # Bytes accessed per row activation
system.mem_ctrls0.bytesPerActivate::512-639          766      0.00%    100.00% # Bytes accessed per row activation
system.mem_ctrls0.bytesPerActivate::640-767          261      0.00%    100.00% # Bytes accessed per row activation
system.mem_ctrls0.bytesPerActivate::768-895          109      0.00%    100.00% # Bytes accessed per row activation
system.mem_ctrls0.bytesPerActivate::896-1023           51      0.00%    100.00% # Bytes accessed per row activation
system.mem_ctrls0.bytesPerActivate::1024-1151           43      0.00%    100.00% # Bytes accessed per row activation
system.mem_ctrls0.bytesPerActivate::total     60850477                       # Bytes accessed per row activation
system.mem_ctrls0.rdPerTurnAround::samples         9028                       # Reads before turning the bus around for writes
system.mem_ctrls0.rdPerTurnAround::mean   6715.846367                       # Reads before turning the bus around for writes
system.mem_ctrls0.rdPerTurnAround::gmean   163.034237                       # Reads before turning the bus around for writes
system.mem_ctrls0.rdPerTurnAround::stdev 74671.501824                       # Reads before turning the bus around for writes
system.mem_ctrls0.rdPerTurnAround::0-131071         8937     98.99%     98.99% # Reads before turning the bus around for writes
system.mem_ctrls0.rdPerTurnAround::131072-262143           43      0.48%     99.47% # Reads before turning the bus around for writes
system.mem_ctrls0.rdPerTurnAround::262144-393215           17      0.19%     99.66% # Reads before turning the bus around for writes
system.mem_ctrls0.rdPerTurnAround::393216-524287           13      0.14%     99.80% # Reads before turning the bus around for writes
system.mem_ctrls0.rdPerTurnAround::524288-655359            4      0.04%     99.84% # Reads before turning the bus around for writes
system.mem_ctrls0.rdPerTurnAround::655360-786431            3      0.03%     99.88% # Reads before turning the bus around for writes
system.mem_ctrls0.rdPerTurnAround::786432-917503            3      0.03%     99.91% # Reads before turning the bus around for writes
system.mem_ctrls0.rdPerTurnAround::1.04858e+06-1.17965e+06            2      0.02%     99.93% # Reads before turning the bus around for writes
system.mem_ctrls0.rdPerTurnAround::1.31072e+06-1.44179e+06            2      0.02%     99.96% # Reads before turning the bus around for writes
system.mem_ctrls0.rdPerTurnAround::2.3593e+06-2.49037e+06            1      0.01%     99.97% # Reads before turning the bus around for writes
system.mem_ctrls0.rdPerTurnAround::2.88358e+06-3.01466e+06            3      0.03%    100.00% # Reads before turning the bus around for writes
system.mem_ctrls0.rdPerTurnAround::total         9028                       # Reads before turning the bus around for writes
system.mem_ctrls0.wrPerTurnAround::samples         9028                       # Writes before turning the bus around for reads
system.mem_ctrls0.wrPerTurnAround::mean     17.899202                       # Writes before turning the bus around for reads
system.mem_ctrls0.wrPerTurnAround::gmean    17.892044                       # Writes before turning the bus around for reads
system.mem_ctrls0.wrPerTurnAround::stdev     0.497504                       # Writes before turning the bus around for reads
system.mem_ctrls0.wrPerTurnAround::16             464      5.14%      5.14% # Writes before turning the bus around for reads
system.mem_ctrls0.wrPerTurnAround::17             155      1.72%      6.86% # Writes before turning the bus around for reads
system.mem_ctrls0.wrPerTurnAround::18            8252     91.40%     98.26% # Writes before turning the bus around for reads
system.mem_ctrls0.wrPerTurnAround::19             151      1.67%     99.93% # Writes before turning the bus around for reads
system.mem_ctrls0.wrPerTurnAround::20               5      0.06%     99.99% # Writes before turning the bus around for reads
system.mem_ctrls0.wrPerTurnAround::30               1      0.01%    100.00% # Writes before turning the bus around for reads
system.mem_ctrls0.wrPerTurnAround::total         9028                       # Writes before turning the bus around for reads
system.mem_ctrls0.totQLat                1773974383882                       # Total ticks spent queuing
system.mem_ctrls0.totMemAccLat           2915410671382                       # Total ticks spent from burst creation until serviced by the DRAM
system.mem_ctrls0.totBusLat              304383010000                       # Total ticks spent in databus transfers
system.mem_ctrls0.avgQLat                    29140.50                       # Average queueing delay per DRAM burst
system.mem_ctrls0.avgBusLat                   5000.00                       # Average bus latency per DRAM burst
system.mem_ctrls0.avgMemAccLat               47890.50                       # Average memory access latency per DRAM burst
system.mem_ctrls0.avgRdBW                      125.63                       # Average DRAM read bandwidth in MiByte/s
system.mem_ctrls0.avgWrBW                        0.33                       # Average achieved write bandwidth in MiByte/s
system.mem_ctrls0.avgRdBWSys                   125.65                       # Average system read bandwidth in MiByte/s
system.mem_ctrls0.avgWrBWSys                     0.33                       # Average system write bandwidth in MiByte/s
system.mem_ctrls0.peakBW                     12800.00                       # Theoretical peak bandwidth in MiByte/s
system.mem_ctrls0.busUtil                        0.98                       # Data bus utilization in percentage
system.mem_ctrls0.busUtilRead                    0.98                       # Data bus utilization in percentage for reads
system.mem_ctrls0.busUtilWrite                   0.00                       # Data bus utilization in percentage for writes
system.mem_ctrls0.avgRdQLen                      1.00                       # Average read queue length when enqueuing
system.mem_ctrls0.avgWrQLen                     24.25                       # Average write queue length when enqueuing
system.mem_ctrls0.readRowHits                  160012                       # Number of row buffer hits during reads
system.mem_ctrls0.writeRowHits                  27702                       # Number of row buffer hits during writes
system.mem_ctrls0.readRowHitRate                 0.26                       # Row buffer hit rate for reads
system.mem_ctrls0.writeRowHitRate               17.14                       # Row buffer hit rate for writes
system.mem_ctrls0.avgGap                    507984.37                       # Average gap between requests
system.mem_ctrls0.pageHitRate                    0.31                       # Row buffer hit rate, read and write combined
system.mem_ctrls0_0.actEnergy            217569744420                       # Energy for activate commands per rank (pJ)
system.mem_ctrls0_0.preEnergy            115641057840                       # Energy for precharge commands per rank (pJ)
system.mem_ctrls0_0.readEnergy           217658594580                       # Energy for read commands per rank (pJ)
system.mem_ctrls0_0.writeEnergy             432273420                       # Energy for write commands per rank (pJ)
system.mem_ctrls0_0.refreshEnergy        2448192252480.000488                       # Energy for refresh commands per rank (pJ)
system.mem_ctrls0_0.actBackEnergy        1037636559690                       # Energy for active background per rank (pJ)
system.mem_ctrls0_0.preBackEnergy         55101909120                       # Energy for precharge background per rank (pJ)
system.mem_ctrls0_0.actPowerDownEnergy   11989178704500                       # Energy for active power-down per rank (pJ)
system.mem_ctrls0_0.prePowerDownEnergy   883317707520                       # Energy for precharge power-down per rank (pJ)
system.mem_ctrls0_0.selfRefreshEnergy       536614890                       # Energy for self refresh per rank (pJ)
system.mem_ctrls0_0.totalEnergy          16965266648670                       # Total energy per rank (pJ)
system.mem_ctrls0_0.averagePower           547.039251                       # Core power per rank (mW)
system.mem_ctrls0_0.totalIdleTime        28593558540707                       # Total Idle time Per DRAM Rank
system.mem_ctrls0_0.memoryStateTime::IDLE  23703676458                       # Time in different power states
system.mem_ctrls0_0.memoryStateTime::REF 1035616354000                       # Time in different power states
system.mem_ctrls0_0.memoryStateTime::SREF   1506167728                       # Time in different power states
system.mem_ctrls0_0.memoryStateTime::PRE_PDN 2300608847348                       # Time in different power states
system.mem_ctrls0_0.memoryStateTime::ACT 1360007199583                       # Time in different power states
system.mem_ctrls0_0.memoryStateTime::ACT_PDN 26291445063220                       # Time in different power states
system.mem_ctrls0_1.actEnergy            216902697060                       # Energy for activate commands per rank (pJ)
system.mem_ctrls0_1.preEnergy            115286502375                       # Energy for precharge commands per rank (pJ)
system.mem_ctrls0_1.readEnergy           217000343700                       # Energy for read commands per rank (pJ)
system.mem_ctrls0_1.writeEnergy             411247260                       # Energy for write commands per rank (pJ)
system.mem_ctrls0_1.refreshEnergy        2448191637840.000488                       # Energy for refresh commands per rank (pJ)
system.mem_ctrls0_1.actBackEnergy        1035463676370                       # Energy for active background per rank (pJ)
system.mem_ctrls0_1.preBackEnergy         55153589760                       # Energy for precharge background per rank (pJ)
system.mem_ctrls0_1.actPowerDownEnergy   11969203171920                       # Energy for active power-down per rank (pJ)
system.mem_ctrls0_1.prePowerDownEnergy   901911942240                       # Energy for precharge power-down per rank (pJ)
system.mem_ctrls0_1.selfRefreshEnergy       540735465                       # Energy for self refresh per rank (pJ)
system.mem_ctrls0_1.totalEnergy          16960067357490                       # Total energy per rank (pJ)
system.mem_ctrls0_1.averagePower           546.871602                       # Core power per rank (mW)
system.mem_ctrls0_1.totalIdleTime        28598260136689                       # Total Idle time Per DRAM Rank
system.mem_ctrls0_1.memoryStateTime::IDLE  23738846902                       # Time in different power states
system.mem_ctrls0_1.memoryStateTime::REF 1035616070000                       # Time in different power states
system.mem_ctrls0_1.memoryStateTime::SREF   1518862328                       # Time in different power states
system.mem_ctrls0_1.memoryStateTime::PRE_PDN 2348973700316                       # Time in different power states
system.mem_ctrls0_1.memoryStateTime::ACT 1355272140163                       # Time in different power states
system.mem_ctrls0_1.memoryStateTime::ACT_PDN 26247767688628                       # Time in different power states
system.mem_ctrls1.pwrStateResidencyTicks::UNDEFINED 193095070470837                       # Cumulative time (in ticks) in various power states
system.mem_ctrls1.bytes_read::cpu.inst            128                       # Number of bytes read from this memory
system.mem_ctrls1.bytes_read::cpu.data             64                       # Number of bytes read from this memory
system.mem_ctrls1.bytes_read::switch_cpus.inst         1088                       # Number of bytes read from this memory
system.mem_ctrls1.bytes_read::switch_cpus.data   1949412352                       # Number of bytes read from this memory
system.mem_ctrls1.bytes_read::switch_cpus_1.inst          704                       # Number of bytes read from this memory
system.mem_ctrls1.bytes_read::switch_cpus_1.data   1949436736                       # Number of bytes read from this memory
system.mem_ctrls1.bytes_read::total        3898851072                       # Number of bytes read from this memory
system.mem_ctrls1.bytes_inst_read::cpu.inst          128                       # Number of instructions bytes read from this memory
system.mem_ctrls1.bytes_inst_read::switch_cpus.inst         1088                       # Number of instructions bytes read from this memory
system.mem_ctrls1.bytes_inst_read::switch_cpus_1.inst          704                       # Number of instructions bytes read from this memory
system.mem_ctrls1.bytes_inst_read::total         1920                       # Number of instructions bytes read from this memory
system.mem_ctrls1.bytes_written::writebacks     10422272                       # Number of bytes written to this memory
system.mem_ctrls1.bytes_written::total       10422272                       # Number of bytes written to this memory
system.mem_ctrls1.num_reads::cpu.inst               2                       # Number of read requests responded to by this memory
system.mem_ctrls1.num_reads::cpu.data               1                       # Number of read requests responded to by this memory
system.mem_ctrls1.num_reads::switch_cpus.inst           17                       # Number of read requests responded to by this memory
system.mem_ctrls1.num_reads::switch_cpus.data     30459568                       # Number of read requests responded to by this memory
system.mem_ctrls1.num_reads::switch_cpus_1.inst           11                       # Number of read requests responded to by this memory
system.mem_ctrls1.num_reads::switch_cpus_1.data     30459949                       # Number of read requests responded to by this memory
system.mem_ctrls1.num_reads::total           60919548                       # Number of read requests responded to by this memory
system.mem_ctrls1.num_writes::writebacks       162848                       # Number of write requests responded to by this memory
system.mem_ctrls1.num_writes::total            162848                       # Number of write requests responded to by this memory
system.mem_ctrls1.bw_read::cpu.inst                 4                       # Total read bandwidth from this memory (bytes/s)
system.mem_ctrls1.bw_read::cpu.data                 2                       # Total read bandwidth from this memory (bytes/s)
system.mem_ctrls1.bw_read::switch_cpus.inst           35                       # Total read bandwidth from this memory (bytes/s)
system.mem_ctrls1.bw_read::switch_cpus.data     62858138                       # Total read bandwidth from this memory (bytes/s)
system.mem_ctrls1.bw_read::switch_cpus_1.inst           23                       # Total read bandwidth from this memory (bytes/s)
system.mem_ctrls1.bw_read::switch_cpus_1.data     62858924                       # Total read bandwidth from this memory (bytes/s)
system.mem_ctrls1.bw_read::total            125717126                       # Total read bandwidth from this memory (bytes/s)
system.mem_ctrls1.bw_inst_read::cpu.inst            4                       # Instruction read bandwidth from this memory (bytes/s)
system.mem_ctrls1.bw_inst_read::switch_cpus.inst           35                       # Instruction read bandwidth from this memory (bytes/s)
system.mem_ctrls1.bw_inst_read::switch_cpus_1.inst           23                       # Instruction read bandwidth from this memory (bytes/s)
system.mem_ctrls1.bw_inst_read::total              62                       # Instruction read bandwidth from this memory (bytes/s)
system.mem_ctrls1.bw_write::writebacks         336063                       # Write bandwidth from this memory (bytes/s)
system.mem_ctrls1.bw_write::total              336063                       # Write bandwidth from this memory (bytes/s)
system.mem_ctrls1.bw_total::writebacks         336063                       # Total bandwidth to/from this memory (bytes/s)
system.mem_ctrls1.bw_total::cpu.inst                4                       # Total bandwidth to/from this memory (bytes/s)
system.mem_ctrls1.bw_total::cpu.data                2                       # Total bandwidth to/from this memory (bytes/s)
system.mem_ctrls1.bw_total::switch_cpus.inst           35                       # Total bandwidth to/from this memory (bytes/s)
system.mem_ctrls1.bw_total::switch_cpus.data     62858138                       # Total bandwidth to/from this memory (bytes/s)
system.mem_ctrls1.bw_total::switch_cpus_1.inst           23                       # Total bandwidth to/from this memory (bytes/s)
system.mem_ctrls1.bw_total::switch_cpus_1.data     62858924                       # Total bandwidth to/from this memory (bytes/s)
system.mem_ctrls1.bw_total::total           126053189                       # Total bandwidth to/from this memory (bytes/s)
system.mem_ctrls1.readReqs                   60919548                       # Number of read requests accepted
system.mem_ctrls1.writeReqs                    162848                       # Number of write requests accepted
system.mem_ctrls1.readBursts                 60919548                       # Number of DRAM read bursts, including those serviced by the write queue
system.mem_ctrls1.writeBursts                  162848                       # Number of DRAM write bursts, including those merged in the write queue
system.mem_ctrls1.bytesReadDRAM            3898068096                       # Total number of bytes read from DRAM
system.mem_ctrls1.bytesReadWrQ                 782976                       # Total number of bytes read from write queue
system.mem_ctrls1.bytesWritten               10397824                       # Total number of bytes written to DRAM
system.mem_ctrls1.bytesReadSys             3898851072                       # Total read bytes from the system interface side
system.mem_ctrls1.bytesWrittenSys            10422272                       # Total written bytes from the system interface side
system.mem_ctrls1.servicedByWrQ                 12234                       # Number of DRAM read bursts serviced by the write queue
system.mem_ctrls1.mergedWrBursts                  355                       # Number of DRAM write bursts merged with an existing one
system.mem_ctrls1.neitherReadNorWriteReqs            0                       # Number of requests that are neither read nor write
system.mem_ctrls1.perBankRdBursts::0          3800077                       # Per bank write bursts
system.mem_ctrls1.perBankRdBursts::1          3803309                       # Per bank write bursts
system.mem_ctrls1.perBankRdBursts::2          3834596                       # Per bank write bursts
system.mem_ctrls1.perBankRdBursts::3          3821212                       # Per bank write bursts
system.mem_ctrls1.perBankRdBursts::4          3829939                       # Per bank write bursts
system.mem_ctrls1.perBankRdBursts::5          3815950                       # Per bank write bursts
system.mem_ctrls1.perBankRdBursts::6          3796061                       # Per bank write bursts
system.mem_ctrls1.perBankRdBursts::7          3812628                       # Per bank write bursts
system.mem_ctrls1.perBankRdBursts::8          3832049                       # Per bank write bursts
system.mem_ctrls1.perBankRdBursts::9          3788990                       # Per bank write bursts
system.mem_ctrls1.perBankRdBursts::10         3803512                       # Per bank write bursts
system.mem_ctrls1.perBankRdBursts::11         3812405                       # Per bank write bursts
system.mem_ctrls1.perBankRdBursts::12         3794406                       # Per bank write bursts
system.mem_ctrls1.perBankRdBursts::13         3795951                       # Per bank write bursts
system.mem_ctrls1.perBankRdBursts::14         3789166                       # Per bank write bursts
system.mem_ctrls1.perBankRdBursts::15         3777063                       # Per bank write bursts
system.mem_ctrls1.perBankWrBursts::0             9731                       # Per bank write bursts
system.mem_ctrls1.perBankWrBursts::1             9694                       # Per bank write bursts
system.mem_ctrls1.perBankWrBursts::2             9675                       # Per bank write bursts
system.mem_ctrls1.perBankWrBursts::3            11811                       # Per bank write bursts
system.mem_ctrls1.perBankWrBursts::4            12174                       # Per bank write bursts
system.mem_ctrls1.perBankWrBursts::5             9946                       # Per bank write bursts
system.mem_ctrls1.perBankWrBursts::6             9956                       # Per bank write bursts
system.mem_ctrls1.perBankWrBursts::7            10007                       # Per bank write bursts
system.mem_ctrls1.perBankWrBursts::8            10301                       # Per bank write bursts
system.mem_ctrls1.perBankWrBursts::9             9944                       # Per bank write bursts
system.mem_ctrls1.perBankWrBursts::10            9959                       # Per bank write bursts
system.mem_ctrls1.perBankWrBursts::11            9983                       # Per bank write bursts
system.mem_ctrls1.perBankWrBursts::12            9845                       # Per bank write bursts
system.mem_ctrls1.perBankWrBursts::13            9952                       # Per bank write bursts
system.mem_ctrls1.perBankWrBursts::14            9690                       # Per bank write bursts
system.mem_ctrls1.perBankWrBursts::15            9798                       # Per bank write bursts
system.mem_ctrls1.numRdRetry                        0                       # Number of times read queue was full causing retry
system.mem_ctrls1.numWrRetry                        0                       # Number of times write queue was full causing retry
system.mem_ctrls1.totGap                 31012886854215                       # Total gap between requests
system.mem_ctrls1.readPktSize::0                    0                       # Read request sizes (log2)
system.mem_ctrls1.readPktSize::1                    0                       # Read request sizes (log2)
system.mem_ctrls1.readPktSize::2                    0                       # Read request sizes (log2)
system.mem_ctrls1.readPktSize::3                    0                       # Read request sizes (log2)
system.mem_ctrls1.readPktSize::4                    0                       # Read request sizes (log2)
system.mem_ctrls1.readPktSize::5                    0                       # Read request sizes (log2)
system.mem_ctrls1.readPktSize::6             60919548                       # Read request sizes (log2)
system.mem_ctrls1.writePktSize::0                   0                       # Write request sizes (log2)
system.mem_ctrls1.writePktSize::1                   0                       # Write request sizes (log2)
system.mem_ctrls1.writePktSize::2                   0                       # Write request sizes (log2)
system.mem_ctrls1.writePktSize::3                   0                       # Write request sizes (log2)
system.mem_ctrls1.writePktSize::4                   0                       # Write request sizes (log2)
system.mem_ctrls1.writePktSize::5                   0                       # Write request sizes (log2)
system.mem_ctrls1.writePktSize::6              162848                       # Write request sizes (log2)
system.mem_ctrls1.rdQLenPdf::0               60855537                       # What read queue length does an incoming req see
system.mem_ctrls1.rdQLenPdf::1                  46303                       # What read queue length does an incoming req see
system.mem_ctrls1.rdQLenPdf::2                   5283                       # What read queue length does an incoming req see
system.mem_ctrls1.rdQLenPdf::3                    191                       # What read queue length does an incoming req see
system.mem_ctrls1.rdQLenPdf::4                      0                       # What read queue length does an incoming req see
system.mem_ctrls1.rdQLenPdf::5                      0                       # What read queue length does an incoming req see
system.mem_ctrls1.rdQLenPdf::6                      0                       # What read queue length does an incoming req see
system.mem_ctrls1.rdQLenPdf::7                      0                       # What read queue length does an incoming req see
system.mem_ctrls1.rdQLenPdf::8                      0                       # What read queue length does an incoming req see
system.mem_ctrls1.rdQLenPdf::9                      0                       # What read queue length does an incoming req see
system.mem_ctrls1.rdQLenPdf::10                     0                       # What read queue length does an incoming req see
system.mem_ctrls1.rdQLenPdf::11                     0                       # What read queue length does an incoming req see
system.mem_ctrls1.rdQLenPdf::12                     0                       # What read queue length does an incoming req see
system.mem_ctrls1.rdQLenPdf::13                     0                       # What read queue length does an incoming req see
system.mem_ctrls1.rdQLenPdf::14                     0                       # What read queue length does an incoming req see
system.mem_ctrls1.rdQLenPdf::15                     0                       # What read queue length does an incoming req see
system.mem_ctrls1.rdQLenPdf::16                     0                       # What read queue length does an incoming req see
system.mem_ctrls1.rdQLenPdf::17                     0                       # What read queue length does an incoming req see
system.mem_ctrls1.rdQLenPdf::18                     0                       # What read queue length does an incoming req see
system.mem_ctrls1.rdQLenPdf::19                     0                       # What read queue length does an incoming req see
system.mem_ctrls1.rdQLenPdf::20                     0                       # What read queue length does an incoming req see
system.mem_ctrls1.rdQLenPdf::21                     0                       # What read queue length does an incoming req see
system.mem_ctrls1.rdQLenPdf::22                     0                       # What read queue length does an incoming req see
system.mem_ctrls1.rdQLenPdf::23                     0                       # What read queue length does an incoming req see
system.mem_ctrls1.rdQLenPdf::24                     0                       # What read queue length does an incoming req see
system.mem_ctrls1.rdQLenPdf::25                     0                       # What read queue length does an incoming req see
system.mem_ctrls1.rdQLenPdf::26                     0                       # What read queue length does an incoming req see
system.mem_ctrls1.rdQLenPdf::27                     0                       # What read queue length does an incoming req see
system.mem_ctrls1.rdQLenPdf::28                     0                       # What read queue length does an incoming req see
system.mem_ctrls1.rdQLenPdf::29                     0                       # What read queue length does an incoming req see
system.mem_ctrls1.rdQLenPdf::30                     0                       # What read queue length does an incoming req see
system.mem_ctrls1.rdQLenPdf::31                     0                       # What read queue length does an incoming req see
system.mem_ctrls1.wrQLenPdf::0                      2                       # What write queue length does an incoming req see
system.mem_ctrls1.wrQLenPdf::1                      2                       # What write queue length does an incoming req see
system.mem_ctrls1.wrQLenPdf::2                      2                       # What write queue length does an incoming req see
system.mem_ctrls1.wrQLenPdf::3                      2                       # What write queue length does an incoming req see
system.mem_ctrls1.wrQLenPdf::4                      2                       # What write queue length does an incoming req see
system.mem_ctrls1.wrQLenPdf::5                      2                       # What write queue length does an incoming req see
system.mem_ctrls1.wrQLenPdf::6                      2                       # What write queue length does an incoming req see
system.mem_ctrls1.wrQLenPdf::7                      2                       # What write queue length does an incoming req see
system.mem_ctrls1.wrQLenPdf::8                      2                       # What write queue length does an incoming req see
system.mem_ctrls1.wrQLenPdf::9                      2                       # What write queue length does an incoming req see
system.mem_ctrls1.wrQLenPdf::10                     2                       # What write queue length does an incoming req see
system.mem_ctrls1.wrQLenPdf::11                     2                       # What write queue length does an incoming req see
system.mem_ctrls1.wrQLenPdf::12                     2                       # What write queue length does an incoming req see
system.mem_ctrls1.wrQLenPdf::13                     2                       # What write queue length does an incoming req see
system.mem_ctrls1.wrQLenPdf::14                     2                       # What write queue length does an incoming req see
system.mem_ctrls1.wrQLenPdf::15                  8436                       # What write queue length does an incoming req see
system.mem_ctrls1.wrQLenPdf::16                  8617                       # What write queue length does an incoming req see
system.mem_ctrls1.wrQLenPdf::17                  9055                       # What write queue length does an incoming req see
system.mem_ctrls1.wrQLenPdf::18                  9077                       # What write queue length does an incoming req see
system.mem_ctrls1.wrQLenPdf::19                  9083                       # What write queue length does an incoming req see
system.mem_ctrls1.wrQLenPdf::20                  9085                       # What write queue length does an incoming req see
system.mem_ctrls1.wrQLenPdf::21                  9081                       # What write queue length does an incoming req see
system.mem_ctrls1.wrQLenPdf::22                  9084                       # What write queue length does an incoming req see
system.mem_ctrls1.wrQLenPdf::23                  9099                       # What write queue length does an incoming req see
system.mem_ctrls1.wrQLenPdf::24                  9090                       # What write queue length does an incoming req see
system.mem_ctrls1.wrQLenPdf::25                  9089                       # What write queue length does an incoming req see
system.mem_ctrls1.wrQLenPdf::26                  9087                       # What write queue length does an incoming req see
system.mem_ctrls1.wrQLenPdf::27                  9086                       # What write queue length does an incoming req see
system.mem_ctrls1.wrQLenPdf::28                  9088                       # What write queue length does an incoming req see
system.mem_ctrls1.wrQLenPdf::29                  9107                       # What write queue length does an incoming req see
system.mem_ctrls1.wrQLenPdf::30                  9140                       # What write queue length does an incoming req see
system.mem_ctrls1.wrQLenPdf::31                  9079                       # What write queue length does an incoming req see
system.mem_ctrls1.wrQLenPdf::32                  9075                       # What write queue length does an incoming req see
system.mem_ctrls1.wrQLenPdf::33                     5                       # What write queue length does an incoming req see
system.mem_ctrls1.wrQLenPdf::34                     0                       # What write queue length does an incoming req see
system.mem_ctrls1.wrQLenPdf::35                     0                       # What write queue length does an incoming req see
system.mem_ctrls1.wrQLenPdf::36                     0                       # What write queue length does an incoming req see
system.mem_ctrls1.wrQLenPdf::37                     0                       # What write queue length does an incoming req see
system.mem_ctrls1.wrQLenPdf::38                     0                       # What write queue length does an incoming req see
system.mem_ctrls1.wrQLenPdf::39                     0                       # What write queue length does an incoming req see
system.mem_ctrls1.wrQLenPdf::40                     0                       # What write queue length does an incoming req see
system.mem_ctrls1.wrQLenPdf::41                     0                       # What write queue length does an incoming req see
system.mem_ctrls1.wrQLenPdf::42                     0                       # What write queue length does an incoming req see
system.mem_ctrls1.wrQLenPdf::43                     0                       # What write queue length does an incoming req see
system.mem_ctrls1.wrQLenPdf::44                     0                       # What write queue length does an incoming req see
system.mem_ctrls1.wrQLenPdf::45                     0                       # What write queue length does an incoming req see
system.mem_ctrls1.wrQLenPdf::46                     0                       # What write queue length does an incoming req see
system.mem_ctrls1.wrQLenPdf::47                     0                       # What write queue length does an incoming req see
system.mem_ctrls1.wrQLenPdf::48                     0                       # What write queue length does an incoming req see
system.mem_ctrls1.wrQLenPdf::49                     0                       # What write queue length does an incoming req see
system.mem_ctrls1.wrQLenPdf::50                     0                       # What write queue length does an incoming req see
system.mem_ctrls1.wrQLenPdf::51                     0                       # What write queue length does an incoming req see
system.mem_ctrls1.wrQLenPdf::52                     0                       # What write queue length does an incoming req see
system.mem_ctrls1.wrQLenPdf::53                     0                       # What write queue length does an incoming req see
system.mem_ctrls1.wrQLenPdf::54                     0                       # What write queue length does an incoming req see
system.mem_ctrls1.wrQLenPdf::55                     0                       # What write queue length does an incoming req see
system.mem_ctrls1.wrQLenPdf::56                     0                       # What write queue length does an incoming req see
system.mem_ctrls1.wrQLenPdf::57                     0                       # What write queue length does an incoming req see
system.mem_ctrls1.wrQLenPdf::58                     0                       # What write queue length does an incoming req see
system.mem_ctrls1.wrQLenPdf::59                     0                       # What write queue length does an incoming req see
system.mem_ctrls1.wrQLenPdf::60                     0                       # What write queue length does an incoming req see
system.mem_ctrls1.wrQLenPdf::61                     0                       # What write queue length does an incoming req see
system.mem_ctrls1.wrQLenPdf::62                     0                       # What write queue length does an incoming req see
system.mem_ctrls1.wrQLenPdf::63                     0                       # What write queue length does an incoming req see
system.mem_ctrls1.bytesPerActivate::samples     60881264                       # Bytes accessed per row activation
system.mem_ctrls1.bytesPerActivate::mean    64.198165                       # Bytes accessed per row activation
system.mem_ctrls1.bytesPerActivate::gmean    64.113228                       # Bytes accessed per row activation
system.mem_ctrls1.bytesPerActivate::stdev     5.490443                       # Bytes accessed per row activation
system.mem_ctrls1.bytesPerActivate::0-127     60754635     99.79%     99.79% # Bytes accessed per row activation
system.mem_ctrls1.bytesPerActivate::128-255       112524      0.18%     99.98% # Bytes accessed per row activation
system.mem_ctrls1.bytesPerActivate::256-383        10349      0.02%     99.99% # Bytes accessed per row activation
system.mem_ctrls1.bytesPerActivate::384-511         2453      0.00%    100.00% # Bytes accessed per row activation
system.mem_ctrls1.bytesPerActivate::512-639          848      0.00%    100.00% # Bytes accessed per row activation
system.mem_ctrls1.bytesPerActivate::640-767          300      0.00%    100.00% # Bytes accessed per row activation
system.mem_ctrls1.bytesPerActivate::768-895          103      0.00%    100.00% # Bytes accessed per row activation
system.mem_ctrls1.bytesPerActivate::896-1023           36      0.00%    100.00% # Bytes accessed per row activation
system.mem_ctrls1.bytesPerActivate::1024-1151           16      0.00%    100.00% # Bytes accessed per row activation
system.mem_ctrls1.bytesPerActivate::total     60881264                       # Bytes accessed per row activation
system.mem_ctrls1.rdPerTurnAround::samples         9075                       # Reads before turning the bus around for writes
system.mem_ctrls1.rdPerTurnAround::mean   6652.062700                       # Reads before turning the bus around for writes
system.mem_ctrls1.rdPerTurnAround::gmean   167.603476                       # Reads before turning the bus around for writes
system.mem_ctrls1.rdPerTurnAround::stdev 72924.431227                       # Reads before turning the bus around for writes
system.mem_ctrls1.rdPerTurnAround::0-131071         8988     99.04%     99.04% # Reads before turning the bus around for writes
system.mem_ctrls1.rdPerTurnAround::131072-262143           43      0.47%     99.52% # Reads before turning the bus around for writes
system.mem_ctrls1.rdPerTurnAround::262144-393215           17      0.19%     99.70% # Reads before turning the bus around for writes
system.mem_ctrls1.rdPerTurnAround::393216-524287            7      0.08%     99.78% # Reads before turning the bus around for writes
system.mem_ctrls1.rdPerTurnAround::524288-655359            3      0.03%     99.81% # Reads before turning the bus around for writes
system.mem_ctrls1.rdPerTurnAround::655360-786431            3      0.03%     99.85% # Reads before turning the bus around for writes
system.mem_ctrls1.rdPerTurnAround::786432-917503            5      0.06%     99.90% # Reads before turning the bus around for writes
system.mem_ctrls1.rdPerTurnAround::917504-1.04858e+06            2      0.02%     99.92% # Reads before turning the bus around for writes
system.mem_ctrls1.rdPerTurnAround::1.17965e+06-1.31072e+06            2      0.02%     99.94% # Reads before turning the bus around for writes
system.mem_ctrls1.rdPerTurnAround::1.44179e+06-1.57286e+06            1      0.01%     99.96% # Reads before turning the bus around for writes
system.mem_ctrls1.rdPerTurnAround::1.57286e+06-1.70394e+06            1      0.01%     99.97% # Reads before turning the bus around for writes
system.mem_ctrls1.rdPerTurnAround::2.09715e+06-2.22822e+06            1      0.01%     99.98% # Reads before turning the bus around for writes
system.mem_ctrls1.rdPerTurnAround::2.88358e+06-3.01466e+06            1      0.01%     99.99% # Reads before turning the bus around for writes
system.mem_ctrls1.rdPerTurnAround::3.53894e+06-3.67002e+06            1      0.01%    100.00% # Reads before turning the bus around for writes
system.mem_ctrls1.rdPerTurnAround::total         9075                       # Reads before turning the bus around for writes
system.mem_ctrls1.wrPerTurnAround::samples         9075                       # Writes before turning the bus around for reads
system.mem_ctrls1.wrPerTurnAround::mean     17.902590                       # Writes before turning the bus around for reads
system.mem_ctrls1.wrPerTurnAround::gmean    17.895503                       # Writes before turning the bus around for reads
system.mem_ctrls1.wrPerTurnAround::stdev     0.495504                       # Writes before turning the bus around for reads
system.mem_ctrls1.wrPerTurnAround::16             450      4.96%      4.96% # Writes before turning the bus around for reads
system.mem_ctrls1.wrPerTurnAround::17             173      1.91%      6.87% # Writes before turning the bus around for reads
system.mem_ctrls1.wrPerTurnAround::18            8283     91.27%     98.14% # Writes before turning the bus around for reads
system.mem_ctrls1.wrPerTurnAround::19             160      1.76%     99.90% # Writes before turning the bus around for reads
system.mem_ctrls1.wrPerTurnAround::20               7      0.08%     99.98% # Writes before turning the bus around for reads
system.mem_ctrls1.wrPerTurnAround::21               1      0.01%     99.99% # Writes before turning the bus around for reads
system.mem_ctrls1.wrPerTurnAround::30               1      0.01%    100.00% # Writes before turning the bus around for reads
system.mem_ctrls1.wrPerTurnAround::total         9075                       # Writes before turning the bus around for reads
system.mem_ctrls1.totQLat                1752236340907                       # Total ticks spent queuing
system.mem_ctrls1.totMemAccLat           2894248478407                       # Total ticks spent from burst creation until serviced by the DRAM
system.mem_ctrls1.totBusLat              304536570000                       # Total ticks spent in databus transfers
system.mem_ctrls1.avgQLat                    28768.90                       # Average queueing delay per DRAM burst
system.mem_ctrls1.avgBusLat                   5000.00                       # Average bus latency per DRAM burst
system.mem_ctrls1.avgMemAccLat               47518.90                       # Average memory access latency per DRAM burst
system.mem_ctrls1.avgRdBW                      125.69                       # Average DRAM read bandwidth in MiByte/s
system.mem_ctrls1.avgWrBW                        0.34                       # Average achieved write bandwidth in MiByte/s
system.mem_ctrls1.avgRdBWSys                   125.72                       # Average system read bandwidth in MiByte/s
system.mem_ctrls1.avgWrBWSys                     0.34                       # Average system write bandwidth in MiByte/s
system.mem_ctrls1.peakBW                     12800.00                       # Theoretical peak bandwidth in MiByte/s
system.mem_ctrls1.busUtil                        0.98                       # Data bus utilization in percentage
system.mem_ctrls1.busUtilRead                    0.98                       # Data bus utilization in percentage for reads
system.mem_ctrls1.busUtilWrite                   0.00                       # Data bus utilization in percentage for writes
system.mem_ctrls1.avgRdQLen                      1.00                       # Average read queue length when enqueuing
system.mem_ctrls1.avgWrQLen                     24.06                       # Average write queue length when enqueuing
system.mem_ctrls1.readRowHits                  160799                       # Number of row buffer hits during reads
system.mem_ctrls1.writeRowHits                  27709                       # Number of row buffer hits during writes
system.mem_ctrls1.readRowHitRate                 0.26                       # Row buffer hit rate for reads
system.mem_ctrls1.writeRowHitRate               17.05                       # Row buffer hit rate for writes
system.mem_ctrls1.avgGap                    507722.17                       # Average gap between requests
system.mem_ctrls1.pageHitRate                    0.31                       # Row buffer hit rate, read and write combined
system.mem_ctrls1_0.actEnergy            217781281200                       # Energy for activate commands per rank (pJ)
system.mem_ctrls1_0.preEnergy            115753477125                       # Energy for precharge commands per rank (pJ)
system.mem_ctrls1_0.readEnergy           217868332080                       # Energy for read commands per rank (pJ)
system.mem_ctrls1_0.writeEnergy             433228680                       # Energy for write commands per rank (pJ)
system.mem_ctrls1_0.refreshEnergy        2448205159920.000488                       # Energy for refresh commands per rank (pJ)
system.mem_ctrls1_0.actBackEnergy        1038145214010                       # Energy for active background per rank (pJ)
system.mem_ctrls1_0.preBackEnergy         55346194560                       # Energy for precharge background per rank (pJ)
system.mem_ctrls1_0.actPowerDownEnergy   11967372914460                       # Energy for active power-down per rank (pJ)
system.mem_ctrls1_0.prePowerDownEnergy   900945802080                       # Energy for precharge power-down per rank (pJ)
system.mem_ctrls1_0.selfRefreshEnergy       600334605                       # Energy for self refresh per rank (pJ)
system.mem_ctrls1_0.totalEnergy          16962453307050                       # Total energy per rank (pJ)
system.mem_ctrls1_0.averagePower           546.948536                       # Core power per rank (mW)
system.mem_ctrls1_0.totalIdleTime        28592538749964                       # Total Idle time Per DRAM Rank
system.mem_ctrls1_0.memoryStateTime::IDLE  23709621173                       # Time in different power states
system.mem_ctrls1_0.memoryStateTime::REF 1035622084000                       # Time in different power states
system.mem_ctrls1_0.memoryStateTime::SREF   1667430173                       # Time in different power states
system.mem_ctrls1_0.memoryStateTime::PRE_PDN 2345761156904                       # Time in different power states
system.mem_ctrls1_0.memoryStateTime::ACT 1361016452806                       # Time in different power states
system.mem_ctrls1_0.memoryStateTime::ACT_PDN 26245110563281                       # Time in different power states
system.mem_ctrls1_1.actEnergy            216911000880                       # Energy for activate commands per rank (pJ)
system.mem_ctrls1_1.preEnergy            115290919755                       # Energy for precharge commands per rank (pJ)
system.mem_ctrls1_1.readEnergy           217009889880                       # Energy for read commands per rank (pJ)
system.mem_ctrls1_1.writeEnergy             414843840                       # Energy for write commands per rank (pJ)
system.mem_ctrls1_1.refreshEnergy        2448196554960.000488                       # Energy for refresh commands per rank (pJ)
system.mem_ctrls1_1.actBackEnergy        1035294202260                       # Energy for active background per rank (pJ)
system.mem_ctrls1_1.preBackEnergy         55335227040                       # Energy for precharge background per rank (pJ)
system.mem_ctrls1_1.actPowerDownEnergy   11964481688070                       # Energy for active power-down per rank (pJ)
system.mem_ctrls1_1.prePowerDownEnergy   905845324800                       # Energy for precharge power-down per rank (pJ)
system.mem_ctrls1_1.selfRefreshEnergy       548383635                       # Energy for self refresh per rank (pJ)
system.mem_ctrls1_1.totalEnergy          16959329499210                       # Total energy per rank (pJ)
system.mem_ctrls1_1.averagePower           546.847810                       # Core power per rank (mW)
system.mem_ctrls1_1.totalIdleTime        28597962709407                       # Total Idle time Per DRAM Rank
system.mem_ctrls1_1.memoryStateTime::IDLE  23754733102                       # Time in different power states
system.mem_ctrls1_1.memoryStateTime::REF 1035618204000                       # Time in different power states
system.mem_ctrls1_1.memoryStateTime::SREF   1529245477                       # Time in different power states
system.mem_ctrls1_1.memoryStateTime::PRE_PDN 2358110478889                       # Time in different power states
system.mem_ctrls1_1.memoryStateTime::ACT 1355550674022                       # Time in different power states
system.mem_ctrls1_1.memoryStateTime::ACT_PDN 26238323972847                       # Time in different power states
system.pwrStateResidencyTicks::UNDEFINED 193095070470837                       # Cumulative time (in ticks) in various power states
system.cpu.branchPred.lookups                      14                       # Number of BP lookups
system.cpu.branchPred.condPredicted                14                       # Number of conditional branches predicted
system.cpu.branchPred.condIncorrect                 4                       # Number of conditional branches incorrect
system.cpu.branchPred.BTBLookups                    0                       # Number of BTB lookups
system.cpu.branchPred.BTBHits                       0                       # Number of BTB hits
system.cpu.branchPred.BTBCorrect                    0                       # Number of correct BTB predictions (this stat may not work properly.
system.cpu.branchPred.BTBHitPct                   nan                       # BTB Hit Percentage
system.cpu.branchPred.usedRAS                       0                       # Number of times the RAS was used to get a target.
system.cpu.branchPred.RASInCorrect                  0                       # Number of incorrect RAS predictions.
system.cpu.branchPred.indirectLookups               0                       # Number of indirect predictor lookups.
system.cpu.branchPred.indirectHits                  0                       # Number of indirect target hits.
system.cpu.branchPred.indirectMisses                0                       # Number of indirect misses.
system.cpu.branchPredindirectMispredicted            0                       # Number of mispredicted indirect branches.
system.cpu_voltage_domain.voltage                   1                       # Voltage in Volts
system.cpu_clk_domain.clock                       333                       # Clock period in ticks
system.cpu.dtb.fetch_hits                           0                       # ITB hits
system.cpu.dtb.fetch_misses                         0                       # ITB misses
system.cpu.dtb.fetch_acv                            0                       # ITB acv
system.cpu.dtb.fetch_accesses                       0                       # ITB accesses
system.cpu.dtb.read_hits                            1                       # DTB read hits
system.cpu.dtb.read_misses                         11                       # DTB read misses
system.cpu.dtb.read_acv                             0                       # DTB read access violations
system.cpu.dtb.read_accesses                       12                       # DTB read accesses
system.cpu.dtb.write_hits                           0                       # DTB write hits
system.cpu.dtb.write_misses                         0                       # DTB write misses
system.cpu.dtb.write_acv                            0                       # DTB write access violations
system.cpu.dtb.write_accesses                       0                       # DTB write accesses
system.cpu.dtb.data_hits                            1                       # DTB hits
system.cpu.dtb.data_misses                         11                       # DTB misses
system.cpu.dtb.data_acv                             0                       # DTB access violations
system.cpu.dtb.data_accesses                       12                       # DTB accesses
system.cpu.itb.fetch_hits                          13                       # ITB hits
system.cpu.itb.fetch_misses                         0                       # ITB misses
system.cpu.itb.fetch_acv                            0                       # ITB acv
system.cpu.itb.fetch_accesses                      13                       # ITB accesses
system.cpu.itb.read_hits                            0                       # DTB read hits
system.cpu.itb.read_misses                          0                       # DTB read misses
system.cpu.itb.read_acv                             0                       # DTB read access violations
system.cpu.itb.read_accesses                        0                       # DTB read accesses
system.cpu.itb.write_hits                           0                       # DTB write hits
system.cpu.itb.write_misses                         0                       # DTB write misses
system.cpu.itb.write_acv                            0                       # DTB write access violations
system.cpu.itb.write_accesses                       0                       # DTB write accesses
system.cpu.itb.data_hits                            0                       # DTB hits
system.cpu.itb.data_misses                          0                       # DTB misses
system.cpu.itb.data_acv                             0                       # DTB access violations
system.cpu.itb.data_accesses                        0                       # DTB accesses
system.cpu.workload.num_syscalls                    0                       # Number of system calls
system.cpu.pwrStateResidencyTicks::ON    31012887308337                       # Cumulative time (in ticks) in various power states
system.cpu.numCycles                             1006                       # number of cpu cycles simulated
system.cpu.numWorkItemsStarted                      0                       # number of work items this cpu started
system.cpu.numWorkItemsCompleted                    0                       # number of work items this cpu completed
[...]
system.switch_cpus_1.iq.rate                 0.192757                       # Inst issue rate
system.switch_cpus_1.iq.fu_busy_cnt            199973                       # FU busy when requested
system.switch_cpus_1.iq.fu_busy_rate         0.000022                       # FU busy rate (busy events/executed inst)
system.switch_cpus_1.iq.int_inst_queue_reads  66168735608                       # Number of integer instruction queue reads
system.switch_cpus_1.iq.int_inst_queue_writes  31275170327                       # Number of integer instruction queue writes
system.switch_cpus_1.iq.int_inst_queue_wakeup_accesses   5790466906                       # Number of integer instruction queue wakeup accesses
system.switch_cpus_1.iq.fp_inst_queue_reads          119                       # Number of floating instruction queue reads
system.switch_cpus_1.iq.fp_inst_queue_writes          110                       # Number of floating instruction queue writes
system.switch_cpus_1.iq.fp_inst_queue_wakeup_accesses           55                       # Number of floating instruction queue wakeup accesses
system.switch_cpus_1.iq.int_alu_accesses   9205756555                       # Number of integer alu accesses
system.switch_cpus_1.iq.fp_alu_accesses            64                       # Number of floating point alu accesses
system.switch_cpus_1.iew.lsq.thread0.forwLoads        58918                       # Number of loads that had data forwarded from stores
system.switch_cpus_1.iew.lsq.thread0.invAddrLoads            0                       # Number of loads ignored due to an invalid address
system.switch_cpus_1.iew.lsq.thread0.squashedLoads   4987002138                       # Number of loads squashed
system.switch_cpus_1.iew.lsq.thread0.ignoredResponses           84                       # Number of memory responses ignored because the instruction is squashed
system.switch_cpus_1.iew.lsq.thread0.memOrderViolation         4098                       # Number of memory ordering violations
system.switch_cpus_1.iew.lsq.thread0.squashedStores      2285025                       # Number of stores squashed
system.switch_cpus_1.iew.lsq.thread0.invAddrSwpfs            0                       # Number of software prefetches ignored due to an invalid address
system.switch_cpus_1.iew.lsq.thread0.blockedLoads            0                       # Number of blocked loads due to partial load-store forwarding
system.switch_cpus_1.iew.lsq.thread0.rescheduledLoads            5                       # Number of loads that were rescheduled
system.switch_cpus_1.iew.lsq.thread0.cacheBlocked       212160                       # Number of times an access to memory failed due to the cache being blocked
system.switch_cpus_1.iew.iewIdleCycles              0                       # Number of cycles IEW is idle
system.switch_cpus_1.iew.iewSquashCycles    164935369                       # Number of cycles IEW is squashing
system.switch_cpus_1.iew.iewBlockCycles   42058919553                       # Number of cycles IEW is blocking
system.switch_cpus_1.iew.iewUnblockCycles    245929668                       # Number of cycles IEW is unblocking
system.switch_cpus_1.iew.iewDispatchedInsts  16138188984                       # Number of instructions dispatched to IQ
system.switch_cpus_1.iew.iewDispSquashedInsts        27541                       # Number of squashed instructions skipped by dispatch
system.switch_cpus_1.iew.iewDispLoadInsts   5308275040                       # Number of dispatched load instructions
system.switch_cpus_1.iew.iewDispStoreInsts      2829345                       # Number of dispatched store instructions
system.switch_cpus_1.iew.iewDispNonSpecInsts            0                       # Number of dispatched non-speculative instructions
system.switch_cpus_1.iew.iewIQFullEvents     95443961                       # Number of times the IQ has become full, causing a stall
system.switch_cpus_1.iew.iewLSQFullEvents     61992608                       # Number of times the LSQ has become full, causing a stall
system.switch_cpus_1.iew.memOrderViolationEvents         4098                       # Number of memory order violations
system.switch_cpus_1.iew.predictedTakenIncorrect      8436297                       # Number of branches that were predicted taken incorrectly
system.switch_cpus_1.iew.predictedNotTakenIncorrect     13958709                       # Number of branches that were predicted not taken incorrectly
system.switch_cpus_1.iew.branchMispredicts     22395006                       # Number of branch mispredicts detected at execute
system.switch_cpus_1.iew.iewExecutedInsts   9184785955                       # Number of executed instructions
system.switch_cpus_1.iew.iewExecLoadInsts   3717079985                       # Number of load instructions executed
system.switch_cpus_1.iew.iewExecSquashedInsts     20770691                       # Number of squashed instructions skipped in execute
system.switch_cpus_1.iew.exec_swp                   0                       # number of swp insts executed
system.switch_cpus_1.iew.exec_nop              605763                       # number of nop insts executed
system.switch_cpus_1.iew.exec_refs         3717850241                       # number of memory reference insts executed
system.switch_cpus_1.iew.exec_branches     1092549964                       # Number of branches executed
system.switch_cpus_1.iew.exec_stores           770256                       # Number of stores executed
system.switch_cpus_1.iew.exec_rate           0.192322                       # Inst execution rate
system.switch_cpus_1.iew.wb_sent           9179823624                       # cumulative count of insts sent to commit
system.switch_cpus_1.iew.wb_count          5790466961                       # cumulative count of insts written-back
system.switch_cpus_1.iew.wb_producers      3334077902                       # num instructions producing a value
system.switch_cpus_1.iew.wb_consumers      4591393331                       # num instructions consuming a value
system.switch_cpus_1.iew.wb_rate             0.121247                       # insts written-back per cycle
system.switch_cpus_1.iew.wb_fanout           0.726158                       # average fanout of values written-back
system.switch_cpus_1.commit.commitSquashedInsts  13988368885                       # The number of squashed insts skipped by commit
system.switch_cpus_1.commit.branchMispredicts     21434397                       # The number of times a branch was mispredicted
system.switch_cpus_1.commit.committed_per_cycle::samples  45946069956                       # Number of insts commited each cycle
system.switch_cpus_1.commit.committed_per_cycle::mean     0.021767                       # Number of insts commited each cycle
system.switch_cpus_1.commit.committed_per_cycle::stdev     0.277405                       # Number of insts commited each cycle
system.switch_cpus_1.commit.committed_per_cycle::underflows            0      0.00%      0.00% # Number of insts commited each cycle
system.switch_cpus_1.commit.committed_per_cycle::0  45436044070     98.89%     98.89% # Number of insts commited each cycle
system.switch_cpus_1.commit.committed_per_cycle::1    276768381      0.60%     99.49% # Number of insts commited each cycle
system.switch_cpus_1.commit.committed_per_cycle::2    159634615      0.35%     99.84% # Number of insts commited each cycle
system.switch_cpus_1.commit.committed_per_cycle::3     30138777      0.07%     99.91% # Number of insts commited each cycle
system.switch_cpus_1.commit.committed_per_cycle::4      8330254      0.02%     99.92% # Number of insts commited each cycle
system.switch_cpus_1.commit.committed_per_cycle::5       169738      0.00%     99.92% # Number of insts commited each cycle
system.switch_cpus_1.commit.committed_per_cycle::6        78276      0.00%     99.92% # Number of insts commited each cycle
system.switch_cpus_1.commit.committed_per_cycle::7       226105      0.00%     99.92% # Number of insts commited each cycle
system.switch_cpus_1.commit.committed_per_cycle::8     34679740      0.08%    100.00% # Number of insts commited each cycle
system.switch_cpus_1.commit.committed_per_cycle::overflows            0      0.00%    100.00% # Number of insts commited each cycle
system.switch_cpus_1.commit.committed_per_cycle::min_value            0                       # Number of insts commited each cycle
system.switch_cpus_1.commit.committed_per_cycle::max_value            8                       # Number of insts commited each cycle
system.switch_cpus_1.commit.committed_per_cycle::total  45946069956                       # Number of insts commited each cycle
system.switch_cpus_1.commit.committedInsts   1000113959                       # Number of instructions committed
system.switch_cpus_1.commit.committedOps   1000113959                       # Number of ops (including micro ops) committed
system.switch_cpus_1.commit.swp_count               0                       # Number of s/w prefetches committed
system.switch_cpus_1.commit.refs            321817194                       # Number of memory references committed
system.switch_cpus_1.commit.loads           321272874                       # Number of loads committed
system.switch_cpus_1.commit.membars                 0                       # Number of memory barriers committed
system.switch_cpus_1.commit.branches        247974098                       # Number of branches committed
system.switch_cpus_1.commit.fp_insts                0                       # Number of committed floating point instructions.
system.switch_cpus_1.commit.int_insts       999764230                       # Number of committed integer instructions.
system.switch_cpus_1.commit.function_calls        12638                       # Number of function calls committed.
system.switch_cpus_1.commit.op_class_0::No_OpClass       113959      0.01%      0.01% # Class of committed instruction
system.switch_cpus_1.commit.op_class_0::IntAlu    678182257     67.81%     67.82% # Class of committed instruction
system.switch_cpus_1.commit.op_class_0::IntMult          549      0.00%     67.82% # Class of committed instruction
system.switch_cpus_1.commit.op_class_0::IntDiv            0      0.00%     67.82% # Class of committed instruction
system.switch_cpus_1.commit.op_class_0::FloatAdd            0      0.00%     67.82% # Class of committed instruction
system.switch_cpus_1.commit.op_class_0::FloatCmp            0      0.00%     67.82% # Class of committed instruction
system.switch_cpus_1.commit.op_class_0::FloatCvt            0      0.00%     67.82% # Class of committed instruction
system.switch_cpus_1.commit.op_class_0::FloatMult            0      0.00%     67.82% # Class of committed instruction
system.switch_cpus_1.commit.op_class_0::FloatMultAcc            0      0.00%     67.82% # Class of committed instruction
system.switch_cpus_1.commit.op_class_0::FloatDiv            0      0.00%     67.82% # Class of committed instruction
system.switch_cpus_1.commit.op_class_0::FloatMisc            0      0.00%     67.82% # Class of committed instruction
system.switch_cpus_1.commit.op_class_0::FloatSqrt            0      0.00%     67.82% # Class of committed instruction
system.switch_cpus_1.commit.op_class_0::SimdAdd            0      0.00%     67.82% # Class of committed instruction
system.switch_cpus_1.commit.op_class_0::SimdAddAcc            0      0.00%     67.82% # Class of committed instruction
system.switch_cpus_1.commit.op_class_0::SimdAlu            0      0.00%     67.82% # Class of committed instruction
system.switch_cpus_1.commit.op_class_0::SimdCmp            0      0.00%     67.82% # Class of committed instruction
system.switch_cpus_1.commit.op_class_0::SimdCvt            0      0.00%     67.82% # Class of committed instruction
system.switch_cpus_1.commit.op_class_0::SimdMisc            0      0.00%     67.82% # Class of committed instruction
system.switch_cpus_1.commit.op_class_0::SimdMult            0      0.00%     67.82% # Class of committed instruction
system.switch_cpus_1.commit.op_class_0::SimdMultAcc            0      0.00%     67.82% # Class of committed instruction
system.switch_cpus_1.commit.op_class_0::SimdShift            0      0.00%     67.82% # Class of committed instruction
system.switch_cpus_1.commit.op_class_0::SimdShiftAcc            0      0.00%     67.82% # Class of committed instruction
system.switch_cpus_1.commit.op_class_0::SimdSqrt            0      0.00%     67.82% # Class of committed instruction
system.switch_cpus_1.commit.op_class_0::SimdFloatAdd            0      0.00%     67.82% # Class of committed instruction
system.switch_cpus_1.commit.op_class_0::SimdFloatAlu            0      0.00%     67.82% # Class of committed instruction
system.switch_cpus_1.commit.op_class_0::SimdFloatCmp            0      0.00%     67.82% # Class of committed instruction
system.switch_cpus_1.commit.op_class_0::SimdFloatCvt            0      0.00%     67.82% # Class of committed instruction
system.switch_cpus_1.commit.op_class_0::SimdFloatDiv            0      0.00%     67.82% # Class of committed instruction
system.switch_cpus_1.commit.op_class_0::SimdFloatMisc            0      0.00%     67.82% # Class of committed instruction
system.switch_cpus_1.commit.op_class_0::SimdFloatMult            0      0.00%     67.82% # Class of committed instruction
system.switch_cpus_1.commit.op_class_0::SimdFloatMultAcc            0      0.00%     67.82% # Class of committed instruction
system.switch_cpus_1.commit.op_class_0::SimdFloatSqrt            0      0.00%     67.82% # Class of committed instruction
system.switch_cpus_1.commit.op_class_0::MemRead    321272874     32.12%     99.95% # Class of committed instruction
system.switch_cpus_1.commit.op_class_0::MemWrite       544320      0.05%    100.00% # Class of committed instruction
system.switch_cpus_1.commit.op_class_0::FloatMemRead            0      0.00%    100.00% # Class of committed instruction
system.switch_cpus_1.commit.op_class_0::FloatMemWrite            0      0.00%    100.00% # Class of committed instruction
system.switch_cpus_1.commit.op_class_0::IprAccess            0      0.00%    100.00% # Class of committed instruction
system.switch_cpus_1.commit.op_class_0::InstPrefetch            0      0.00%    100.00% # Class of committed instruction
system.switch_cpus_1.commit.op_class_0::total   1000113959                       # Class of committed instruction
system.switch_cpus_1.commit.bw_lim_events     34679740                       # number cycles where commit BW limit reached
system.switch_cpus_1.rob.rob_reads        59034412450                       # The number of ROB reads
system.switch_cpus_1.rob.rob_writes       31788311220                       # The number of ROB writes
system.switch_cpus_1.timesIdled                    17                       # Number of times that the entire CPU went into an idle state and unscheduled itself
system.switch_cpus_1.idleCycles                  2227                       # Total number of cycles that the CPU has spent unscheduled due to idling
system.switch_cpus_1.committedInsts        1000000000                       # Number of Instructions Simulated
system.switch_cpus_1.committedOps          1000000000                       # Number of Ops (including micro ops) Simulated
system.switch_cpus_1.cpi                    47.757417                       # CPI: Cycles Per Instruction
system.switch_cpus_1.cpi_total              47.757417                       # CPI: Total CPI of All Threads
system.switch_cpus_1.ipc                     0.020939                       # IPC: Instructions Per Cycle
system.switch_cpus_1.ipc_total               0.020939                       # IPC: Total IPC of All Threads
system.switch_cpus_1.int_regfile_reads    13495753876                       # number of integer regfile reads
system.switch_cpus_1.int_regfile_writes    4697488283                       # number of integer regfile writes
system.switch_cpus_1.fp_regfile_reads              55                       # number of floating regfile reads
system.switch_cpus_1.fp_regfile_writes             32                       # number of floating regfile writes
system.tol3bus.snoop_filter.tot_requests    474431328                       # Total number of requests made to the snoop filter.
system.tol3bus.snoop_filter.hit_single_requests    237213909                       # Number of requests hitting in the snoop filter with a single holder of the requested data.
system.tol3bus.snoop_filter.hit_multi_requests            0                       # Number of requests hitting in the snoop filter with multiple (>1) holders of the requested data.
system.tol3bus.snoop_filter.tot_snoops          65723                       # Total number of snoops made to the snoop filter.
system.tol3bus.snoop_filter.hit_single_snoops        65723                       # Number of snoops hitting in the snoop filter with a single holder of the requested data.
system.tol3bus.snoop_filter.hit_multi_snoops            0                       # Number of snoops hitting in the snoop filter with multiple (>1) holders of the requested data.
system.tol3bus.pwrStateResidencyTicks::UNDEFINED 193095070470837                       # Cumulative time (in ticks) in various power states
system.tol3bus.trans_dist::ReadResp         237184640                       # Transaction distribution
system.tol3bus.trans_dist::WritebackDirty      9262086                       # Transaction distribution
system.tol3bus.trans_dist::CleanEvict       349695504                       # Transaction distribution
system.tol3bus.trans_dist::ReadExReq            32779                       # Transaction distribution
system.tol3bus.trans_dist::ReadExResp           32779                       # Transaction distribution
system.tol3bus.trans_dist::ReadSharedReq    237184640                       # Transaction distribution
system.tol3bus.pkt_count_system.cpu.l2.mem_side::system.l3.cpu_side    711648747                       # Packet count per connected master and slave (bytes)
system.tol3bus.pkt_size_system.cpu.l2.mem_side::system.l3.cpu_side  15753897024                       # Cumulative packet size per connected master and slave (bytes)
system.tol3bus.snoops                       121743681                       # Total snoops (count)
system.tol3bus.snoopTraffic                  20791296                       # Total snoop traffic (bytes)
system.tol3bus.snoop_fanout::samples        358961100                       # Request fanout histogram
system.tol3bus.snoop_fanout::mean            0.000183                       # Request fanout histogram
system.tol3bus.snoop_fanout::stdev           0.013530                       # Request fanout histogram
system.tol3bus.snoop_fanout::underflows             0      0.00%      0.00% # Request fanout histogram
system.tol3bus.snoop_fanout::0              358895377     99.98%     99.98% # Request fanout histogram
system.tol3bus.snoop_fanout::1                  65723      0.02%    100.00% # Request fanout histogram
system.tol3bus.snoop_fanout::overflows              0      0.00%    100.00% # Request fanout histogram
system.tol3bus.snoop_fanout::min_value              0                       # Request fanout histogram
system.tol3bus.snoop_fanout::max_value              1                       # Request fanout histogram
system.tol3bus.snoop_fanout::total          358961100                       # Request fanout histogram
system.tol3bus.reqLayer0.occupancy       160961727150                       # Layer occupancy (ticks)
system.tol3bus.reqLayer0.utilization              0.5                       # Layer utilization (%)
system.tol3bus.respLayer0.occupancy      157986801054                       # Layer occupancy (ticks)
system.tol3bus.respLayer0.utilization             0.5                       # Layer utilization (%)

---------- End Simulation Statistics   ----------
