
---------- Begin Simulation Statistics ----------
sim_seconds                                  1.576544                       # Number of seconds simulated
sim_ticks                                1576543844034                       # Number of ticks simulated
final_tick                               34879921768395                       # Number of ticks from beginning of simulation (restored from checkpoints and never reset)
sim_freq                                 1000000000000                       # Frequency of simulated ticks
host_inst_rate                                 661007                       # Simulator instruction rate (inst/s)
host_op_rate                                   661007                       # Simulator op (including micro ops) rate (op/s)
host_tick_rate                              868421700                       # Simulator tick rate (ticks/s)
host_mem_usage                                2568168                       # Number of bytes of host memory used
host_seconds                                  1815.41                       # Real time elapsed on the host
sim_insts                                  1200000009                       # Number of instructions simulated
sim_ops                                    1200000009                       # Number of ops (including micro ops) simulated
system.voltage_domain.voltage                       1                       # Voltage in Volts
system.clk_domain.clock                          1000                       # Clock period in ticks
system.mem_ctrls0.pwrStateResidencyTicks::UNDEFINED 34879921768395                       # Cumulative time (in ticks) in various power states
system.mem_ctrls0.bytes_read::cpu.inst            128                       # Number of bytes read from this memory
system.mem_ctrls0.bytes_read::cpu.data            192                       # Number of bytes read from this memory
system.mem_ctrls0.bytes_read::switch_cpus.inst         8064                       # Number of bytes read from this memory
system.mem_ctrls0.bytes_read::switch_cpus.data     85965504                       # Number of bytes read from this memory
system.mem_ctrls0.bytes_read::switch_cpus_1.inst           64                       # Number of bytes read from this memory
system.mem_ctrls0.bytes_read::switch_cpus_1.data     17620288                       # Number of bytes read from this memory
system.mem_ctrls0.bytes_read::total         103594240                       # Number of bytes read from this memory
system.mem_ctrls0.bytes_inst_read::cpu.inst          128                       # Number of instructions bytes read from this memory
system.mem_ctrls0.bytes_inst_read::switch_cpus.inst         8064                       # Number of instructions bytes read from this memory
system.mem_ctrls0.bytes_inst_read::switch_cpus_1.inst           64                       # Number of instructions bytes read from this memory
system.mem_ctrls0.bytes_inst_read::total         8256                       # Number of instructions bytes read from this memory
system.mem_ctrls0.bytes_written::writebacks     35003072                       # Number of bytes written to this memory
system.mem_ctrls0.bytes_written::total       35003072                       # Number of bytes written to this memory
system.mem_ctrls0.num_reads::cpu.inst               2                       # Number of read requests responded to by this memory
system.mem_ctrls0.num_reads::cpu.data               3                       # Number of read requests responded to by this memory
system.mem_ctrls0.num_reads::switch_cpus.inst          126                       # Number of read requests responded to by this memory
system.mem_ctrls0.num_reads::switch_cpus.data      1343211                       # Number of read requests responded to by this memory
system.mem_ctrls0.num_reads::switch_cpus_1.inst            1                       # Number of read requests responded to by this memory
system.mem_ctrls0.num_reads::switch_cpus_1.data       275317                       # Number of read requests responded to by this memory
system.mem_ctrls0.num_reads::total            1618660                       # Number of read requests responded to by this memory
system.mem_ctrls0.num_writes::writebacks       546923                       # Number of write requests responded to by this memory
system.mem_ctrls0.num_writes::total            546923                       # Number of write requests responded to by this memory
system.mem_ctrls0.bw_read::cpu.inst                81                       # Total read bandwidth from this memory (bytes/s)
system.mem_ctrls0.bw_read::cpu.data               122                       # Total read bandwidth from this memory (bytes/s)
system.mem_ctrls0.bw_read::switch_cpus.inst         5115                       # Total read bandwidth from this memory (bytes/s)
system.mem_ctrls0.bw_read::switch_cpus.data     54527823                       # Total read bandwidth from this memory (bytes/s)
system.mem_ctrls0.bw_read::switch_cpus_1.inst           41                       # Total read bandwidth from this memory (bytes/s)
system.mem_ctrls0.bw_read::switch_cpus_1.data     11176529                       # Total read bandwidth from this memory (bytes/s)
system.mem_ctrls0.bw_read::total             65709711                       # Total read bandwidth from this memory (bytes/s)
system.mem_ctrls0.bw_inst_read::cpu.inst           81                       # Instruction read bandwidth from this memory (bytes/s)
system.mem_ctrls0.bw_inst_read::switch_cpus.inst         5115                       # Instruction read bandwidth from this memory (bytes/s)
system.mem_ctrls0.bw_inst_read::switch_cpus_1.inst           41                       # Instruction read bandwidth from this memory (bytes/s)
system.mem_ctrls0.bw_inst_read::total            5237                       # Instruction read bandwidth from this memory (bytes/s)
system.mem_ctrls0.bw_write::writebacks       22202409                       # Write bandwidth from this memory (bytes/s)
system.mem_ctrls0.bw_write::total            22202409                       # Write bandwidth from this memory (bytes/s)
system.mem_ctrls0.bw_total::writebacks       22202409                       # Total bandwidth to/from this memory (bytes/s)
system.mem_ctrls0.bw_total::cpu.inst               81                       # Total bandwidth to/from this memory (bytes/s)
system.mem_ctrls0.bw_total::cpu.data              122                       # Total bandwidth to/from this memory (bytes/s)
system.mem_ctrls0.bw_total::switch_cpus.inst         5115                       # Total bandwidth to/from this memory (bytes/s)
system.mem_ctrls0.bw_total::switch_cpus.data     54527823                       # Total bandwidth to/from this memory (bytes/s)
system.mem_ctrls0.bw_total::switch_cpus_1.inst           41                       # Total bandwidth to/from this memory (bytes/s)
system.mem_ctrls0.bw_total::switch_cpus_1.data     11176529                       # Total bandwidth to/from this memory (bytes/s)
system.mem_ctrls0.bw_total::total            87912120                       # Total bandwidth to/from this memory (bytes/s)
system.mem_ctrls0.readReqs                    1618660                       # Number of read requests accepted
system.mem_ctrls0.writeReqs                    546923                       # Number of write requests accepted
system.mem_ctrls0.readBursts                  1618660                       # Number of DRAM read bursts, including those serviced by the write queue
system.mem_ctrls0.writeBursts                  546923                       # Number of DRAM write bursts, including those merged in the write queue
system.mem_ctrls0.bytesReadDRAM             103577664                       # Total number of bytes read from DRAM
system.mem_ctrls0.bytesReadWrQ                  16576                       # Total number of bytes read from write queue
system.mem_ctrls0.bytesWritten               35001088                       # Total number of bytes written to DRAM
system.mem_ctrls0.bytesReadSys              103594240                       # Total read bytes from the system interface side
system.mem_ctrls0.bytesWrittenSys            35003072                       # Total written bytes from the system interface side
system.mem_ctrls0.servicedByWrQ                   259                       # Number of DRAM read bursts serviced by the write queue
system.mem_ctrls0.mergedWrBursts                    0                       # Number of DRAM write bursts merged with an existing one
system.mem_ctrls0.neitherReadNorWriteReqs            0                       # Number of requests that are neither read nor write
system.mem_ctrls0.perBankRdBursts::0           105551                       # Per bank write bursts
system.mem_ctrls0.perBankRdBursts::1           103313                       # Per bank write bursts
system.mem_ctrls0.perBankRdBursts::2           103632                       # Per bank write bursts
system.mem_ctrls0.perBankRdBursts::3           100915                       # Per bank write bursts
system.mem_ctrls0.perBankRdBursts::4           101432                       # Per bank write bursts
system.mem_ctrls0.perBankRdBursts::5           101462                       # Per bank write bursts
system.mem_ctrls0.perBankRdBursts::6           100971                       # Per bank write bursts
system.mem_ctrls0.perBankRdBursts::7           101555                       # Per bank write bursts
system.mem_ctrls0.perBankRdBursts::8           100902                       # Per bank write bursts
system.mem_ctrls0.perBankRdBursts::9            99307                       # Per bank write bursts
system.mem_ctrls0.perBankRdBursts::10           99336                       # Per bank write bursts
system.mem_ctrls0.perBankRdBursts::11           99183                       # Per bank write bursts
system.mem_ctrls0.perBankRdBursts::12           98313                       # Per bank write bursts
system.mem_ctrls0.perBankRdBursts::13           98342                       # Per bank write bursts
system.mem_ctrls0.perBankRdBursts::14          100517                       # Per bank write bursts
system.mem_ctrls0.perBankRdBursts::15          103670                       # Per bank write bursts
system.mem_ctrls0.perBankWrBursts::0            36393                       # Per bank write bursts
system.mem_ctrls0.perBankWrBursts::1            35373                       # Per bank write bursts
system.mem_ctrls0.perBankWrBursts::2            34820                       # Per bank write bursts
system.mem_ctrls0.perBankWrBursts::3            33664                       # Per bank write bursts
system.mem_ctrls0.perBankWrBursts::4            33637                       # Per bank write bursts
system.mem_ctrls0.perBankWrBursts::5            33597                       # Per bank write bursts
system.mem_ctrls0.perBankWrBursts::6            33565                       # Per bank write bursts
system.mem_ctrls0.perBankWrBursts::7            33982                       # Per bank write bursts
system.mem_ctrls0.perBankWrBursts::8            33637                       # Per bank write bursts
system.mem_ctrls0.perBankWrBursts::9            33369                       # Per bank write bursts
system.mem_ctrls0.perBankWrBursts::10           33836                       # Per bank write bursts
system.mem_ctrls0.perBankWrBursts::11           33677                       # Per bank write bursts
system.mem_ctrls0.perBankWrBursts::12           33570                       # Per bank write bursts
system.mem_ctrls0.perBankWrBursts::13           33667                       # Per bank write bursts
system.mem_ctrls0.perBankWrBursts::14           34446                       # Per bank write bursts
system.mem_ctrls0.perBankWrBursts::15           35659                       # Per bank write bursts
system.mem_ctrls0.numRdRetry                        0                       # Number of times read queue was full causing retry
system.mem_ctrls0.numWrRetry                        0                       # Number of times write queue was full causing retry
system.mem_ctrls0.totGap                 1576543041171                       # Total gap between requests
system.mem_ctrls0.readPktSize::0                    0                       # Read request sizes (log2)
system.mem_ctrls0.readPktSize::1                    0                       # Read request sizes (log2)
system.mem_ctrls0.readPktSize::2                    0                       # Read request sizes (log2)
system.mem_ctrls0.readPktSize::3                    0                       # Read request sizes (log2)
system.mem_ctrls0.readPktSize::4                    0                       # Read request sizes (log2)
system.mem_ctrls0.readPktSize::5                    0                       # Read request sizes (log2)
system.mem_ctrls0.readPktSize::6              1618660                       # Read request sizes (log2)
system.mem_ctrls0.writePktSize::0                   0                       # Write request sizes (log2)
system.mem_ctrls0.writePktSize::1                   0                       # Write request sizes (log2)
system.mem_ctrls0.writePktSize::2                   0                       # Write request sizes (log2)
system.mem_ctrls0.writePktSize::3                   0                       # Write request sizes (log2)
system.mem_ctrls0.writePktSize::4                   0                       # Write request sizes (log2)
system.mem_ctrls0.writePktSize::5                   0                       # Write request sizes (log2)
system.mem_ctrls0.writePktSize::6              546923                       # Write request sizes (log2)
system.mem_ctrls0.rdQLenPdf::0                1518098                       # What read queue length does an incoming req see
system.mem_ctrls0.rdQLenPdf::1                  88269                       # What read queue length does an incoming req see
system.mem_ctrls0.rdQLenPdf::2                  11278                       # What read queue length does an incoming req see
system.mem_ctrls0.rdQLenPdf::3                    756                       # What read queue length does an incoming req see
system.mem_ctrls0.rdQLenPdf::4                      0                       # What read queue length does an incoming req see
system.mem_ctrls0.rdQLenPdf::5                      0                       # What read queue length does an incoming req see
system.mem_ctrls0.rdQLenPdf::6                      0                       # What read queue length does an incoming req see
system.mem_ctrls0.rdQLenPdf::7                      0                       # What read queue length does an incoming req see
system.mem_ctrls0.rdQLenPdf::8                      0                       # What read queue length does an incoming req see
system.mem_ctrls0.rdQLenPdf::9                      0                       # What read queue length does an incoming req see
system.mem_ctrls0.rdQLenPdf::10                     0                       # What read queue length does an incoming req see
system.mem_ctrls0.rdQLenPdf::11                     0                       # What read queue length does an incoming req see
system.mem_ctrls0.rdQLenPdf::12                     0                       # What read queue length does an incoming req see
system.mem_ctrls0.rdQLenPdf::13                     0                       # What read queue length does an incoming req see
system.mem_ctrls0.rdQLenPdf::14                     0                       # What read queue length does an incoming req see
system.mem_ctrls0.rdQLenPdf::15                     0                       # What read queue length does an incoming req see
system.mem_ctrls0.rdQLenPdf::16                     0                       # What read queue length does an incoming req see
system.mem_ctrls0.rdQLenPdf::17                     0                       # What read queue length does an incoming req see
system.mem_ctrls0.rdQLenPdf::18                     0                       # What read queue length does an incoming req see
system.mem_ctrls0.rdQLenPdf::19                     0                       # What read queue length does an incoming req see
system.mem_ctrls0.rdQLenPdf::20                     0                       # What read queue length does an incoming req see
system.mem_ctrls0.rdQLenPdf::21                     0                       # What read queue length does an incoming req see
system.mem_ctrls0.rdQLenPdf::22                     0                       # What read queue length does an incoming req see
system.mem_ctrls0.rdQLenPdf::23                     0                       # What read queue length does an incoming req see
system.mem_ctrls0.rdQLenPdf::24                     0                       # What read queue length does an incoming req see
system.mem_ctrls0.rdQLenPdf::25                     0                       # What read queue length does an incoming req see
system.mem_ctrls0.rdQLenPdf::26                     0                       # What read queue length does an incoming req see
system.mem_ctrls0.rdQLenPdf::27                     0                       # What read queue length does an incoming req see
system.mem_ctrls0.rdQLenPdf::28                     0                       # What read queue length does an incoming req see
system.mem_ctrls0.rdQLenPdf::29                     0                       # What read queue length does an incoming req see
system.mem_ctrls0.rdQLenPdf::30                     0                       # What read queue length does an incoming req see
system.mem_ctrls0.rdQLenPdf::31                     0                       # What read queue length does an incoming req see
system.mem_ctrls0.wrQLenPdf::0                      2                       # What write queue length does an incoming req see
system.mem_ctrls0.wrQLenPdf::1                      2                       # What write queue length does an incoming req see
system.mem_ctrls0.wrQLenPdf::2                      2                       # What write queue length does an incoming req see
system.mem_ctrls0.wrQLenPdf::3                      2                       # What write queue length does an incoming req see
system.mem_ctrls0.wrQLenPdf::4                      2                       # What write queue length does an incoming req see
system.mem_ctrls0.wrQLenPdf::5                      2                       # What write queue length does an incoming req see
system.mem_ctrls0.wrQLenPdf::6                      2                       # What write queue length does an incoming req see
system.mem_ctrls0.wrQLenPdf::7                      2                       # What write queue length does an incoming req see
system.mem_ctrls0.wrQLenPdf::8                      2                       # What write queue length does an incoming req see
system.mem_ctrls0.wrQLenPdf::9                      2                       # What write queue length does an incoming req see
system.mem_ctrls0.wrQLenPdf::10                     2                       # What write queue length does an incoming req see
system.mem_ctrls0.wrQLenPdf::11                     2                       # What write queue length does an incoming req see
system.mem_ctrls0.wrQLenPdf::12                     2                       # What write queue length does an incoming req see
system.mem_ctrls0.wrQLenPdf::13                     2                       # What write queue length does an incoming req see
system.mem_ctrls0.wrQLenPdf::14                     2                       # What write queue length does an incoming req see
system.mem_ctrls0.wrQLenPdf::15                 18174                       # What write queue length does an incoming req see
system.mem_ctrls0.wrQLenPdf::16                 18793                       # What write queue length does an incoming req see
system.mem_ctrls0.wrQLenPdf::17                 30481                       # What write queue length does an incoming req see
system.mem_ctrls0.wrQLenPdf::18                 31790                       # What write queue length does an incoming req see
system.mem_ctrls0.wrQLenPdf::19                 31928                       # What write queue length does an incoming req see
system.mem_ctrls0.wrQLenPdf::20                 31925                       # What write queue length does an incoming req see
system.mem_ctrls0.wrQLenPdf::21                 31938                       # What write queue length does an incoming req see
system.mem_ctrls0.wrQLenPdf::22                 32004                       # What write queue length does an incoming req see
system.mem_ctrls0.wrQLenPdf::23                 31969                       # What write queue length does an incoming req see
system.mem_ctrls0.wrQLenPdf::24                 32057                       # What write queue length does an incoming req see
system.mem_ctrls0.wrQLenPdf::25                 32358                       # What write queue length does an incoming req see
system.mem_ctrls0.wrQLenPdf::26                 32044                       # What write queue length does an incoming req see
system.mem_ctrls0.wrQLenPdf::27                 31995                       # What write queue length does an incoming req see
system.mem_ctrls0.wrQLenPdf::28                 31962                       # What write queue length does an incoming req see
system.mem_ctrls0.wrQLenPdf::29                 31923                       # What write queue length does an incoming req see
system.mem_ctrls0.wrQLenPdf::30                 31894                       # What write queue length does an incoming req see
system.mem_ctrls0.wrQLenPdf::31                 31797                       # What write queue length does an incoming req see
system.mem_ctrls0.wrQLenPdf::32                 31782                       # What write queue length does an incoming req see
system.mem_ctrls0.wrQLenPdf::33                    74                       # What write queue length does an incoming req see
system.mem_ctrls0.wrQLenPdf::34                     5                       # What write queue length does an incoming req see
system.mem_ctrls0.wrQLenPdf::35                     0                       # What write queue length does an incoming req see
system.mem_ctrls0.wrQLenPdf::36                     0                       # What write queue length does an incoming req see
system.mem_ctrls0.wrQLenPdf::37                     0                       # What write queue length does an incoming req see
system.mem_ctrls0.wrQLenPdf::38                     0                       # What write queue length does an incoming req see
system.mem_ctrls0.wrQLenPdf::39                     0                       # What write queue length does an incoming req see
system.mem_ctrls0.wrQLenPdf::40                     0                       # What write queue length does an incoming req see
system.mem_ctrls0.wrQLenPdf::41                     0                       # What write queue length does an incoming req see
system.mem_ctrls0.wrQLenPdf::42                     0                       # What write queue length does an incoming req see
system.mem_ctrls0.wrQLenPdf::43                     0                       # What write queue length does an incoming req see
system.mem_ctrls0.wrQLenPdf::44                     0                       # What write queue length does an incoming req see
system.mem_ctrls0.wrQLenPdf::45                     0                       # What write queue length does an incoming req see
system.mem_ctrls0.wrQLenPdf::46                     0                       # What write queue length does an incoming req see
system.mem_ctrls0.wrQLenPdf::47                     0                       # What write queue length does an incoming req see
system.mem_ctrls0.wrQLenPdf::48                     0                       # What write queue length does an incoming req see
system.mem_ctrls0.wrQLenPdf::49                     0                       # What write queue length does an incoming req see
system.mem_ctrls0.wrQLenPdf::50                     0                       # What write queue length does an incoming req see
system.mem_ctrls0.wrQLenPdf::51                     0                       # What write queue length does an incoming req see
system.mem_ctrls0.wrQLenPdf::52                     0                       # What write queue length does an incoming req see
system.mem_ctrls0.wrQLenPdf::53                     0                       # What write queue length does an incoming req see
system.mem_ctrls0.wrQLenPdf::54                     0                       # What write queue length does an incoming req see
system.mem_ctrls0.wrQLenPdf::55                     0                       # What write queue length does an incoming req see
system.mem_ctrls0.wrQLenPdf::56                     0                       # What write queue length does an incoming req see
system.mem_ctrls0.wrQLenPdf::57                     0                       # What write queue length does an incoming req see
system.mem_ctrls0.wrQLenPdf::58                     0                       # What write queue length does an incoming req see
system.mem_ctrls0.wrQLenPdf::59                     0                       # What write queue length does an incoming req see
system.mem_ctrls0.wrQLenPdf::60                     0                       # What write queue length does an incoming req see
system.mem_ctrls0.wrQLenPdf::61                     0                       # What write queue length does an incoming req see
system.mem_ctrls0.wrQLenPdf::62                     0                       # What write queue length does an incoming req see
system.mem_ctrls0.wrQLenPdf::63                     0                       # What write queue length does an incoming req see
system.mem_ctrls0.bytesPerActivate::samples      1962683                       # Bytes accessed per row activation
system.mem_ctrls0.bytesPerActivate::mean    70.606532                       # Bytes accessed per row activation
system.mem_ctrls0.bytesPerActivate::gmean    67.748686                       # Bytes accessed per row activation
system.mem_ctrls0.bytesPerActivate::stdev    31.264827                       # Bytes accessed per row activation
system.mem_ctrls0.bytesPerActivate::0-127      1840247     93.76%     93.76% # Bytes accessed per row activation
system.mem_ctrls0.bytesPerActivate::128-255       101913      5.19%     98.95% # Bytes accessed per row activation
system.mem_ctrls0.bytesPerActivate::256-383        16669      0.85%     99.80% # Bytes accessed per row activation
system.mem_ctrls0.bytesPerActivate::384-511         3211      0.16%     99.97% # Bytes accessed per row activation
system.mem_ctrls0.bytesPerActivate::512-639          525      0.03%     99.99% # Bytes accessed per row activation
system.mem_ctrls0.bytesPerActivate::640-767           87      0.00%    100.00% # Bytes accessed per row activation
system.mem_ctrls0.bytesPerActivate::768-895           24      0.00%    100.00% # Bytes accessed per row activation
system.mem_ctrls0.bytesPerActivate::896-1023            5      0.00%    100.00% # Bytes accessed per row activation
system.mem_ctrls0.bytesPerActivate::1024-1151            2      0.00%    100.00% # Bytes accessed per row activation
system.mem_ctrls0.bytesPerActivate::total      1962683                       # Bytes accessed per row activation
system.mem_ctrls0.rdPerTurnAround::samples        31774                       # Reads before turning the bus around for writes
system.mem_ctrls0.rdPerTurnAround::mean     50.933751                       # Reads before turning the bus around for writes
system.mem_ctrls0.rdPerTurnAround::gmean    48.149887                       # Reads before turning the bus around for writes
system.mem_ctrls0.rdPerTurnAround::stdev   115.514818                       # Reads before turning the bus around for writes
system.mem_ctrls0.rdPerTurnAround::0-1023        31770     99.99%     99.99% # Reads before turning the bus around for writes
system.mem_ctrls0.rdPerTurnAround::1024-2047            2      0.01%     99.99% # Reads before turning the bus around for writes
system.mem_ctrls0.rdPerTurnAround::2048-3071            1      0.00%    100.00% # Reads before turning the bus around for writes
system.mem_ctrls0.rdPerTurnAround::19456-20479            1      0.00%    100.00% # Reads before turning the bus around for writes
system.mem_ctrls0.rdPerTurnAround::total        31774                       # Reads before turning the bus around for writes
system.mem_ctrls0.wrPerTurnAround::samples        31774                       # Writes before turning the bus around for reads
system.mem_ctrls0.wrPerTurnAround::mean     17.211934                       # Writes before turning the bus around for reads
system.mem_ctrls0.wrPerTurnAround::gmean    17.180069                       # Writes before turning the bus around for reads
system.mem_ctrls0.wrPerTurnAround::stdev     1.043492                       # Writes before turning the bus around for reads
system.mem_ctrls0.wrPerTurnAround::16           13024     40.99%     40.99% # Writes before turning the bus around for reads
system.mem_ctrls0.wrPerTurnAround::17             496      1.56%     42.55% # Writes before turning the bus around for reads
system.mem_ctrls0.wrPerTurnAround::18           16858     53.06%     95.61% # Writes before turning the bus around for reads
system.mem_ctrls0.wrPerTurnAround::19            1296      4.08%     99.69% # Writes before turning the bus around for reads
system.mem_ctrls0.wrPerTurnAround::20              93      0.29%     99.98% # Writes before turning the bus around for reads
system.mem_ctrls0.wrPerTurnAround::21               6      0.02%    100.00% # Writes before turning the bus around for reads
system.mem_ctrls0.wrPerTurnAround::22               1      0.00%    100.00% # Writes before turning the bus around for reads
system.mem_ctrls0.wrPerTurnAround::total        31774                       # Writes before turning the bus around for reads
system.mem_ctrls0.totQLat                 86694734374                       # Total ticks spent queuing
system.mem_ctrls0.totMemAccLat           117039753124                       # Total ticks spent from burst creation until serviced by the DRAM
system.mem_ctrls0.totBusLat                8092005000                       # Total ticks spent in databus transfers
system.mem_ctrls0.avgQLat                    53568.14                       # Average queueing delay per DRAM burst
system.mem_ctrls0.avgBusLat                   5000.00                       # Average bus latency per DRAM burst
system.mem_ctrls0.avgMemAccLat               72318.14                       # Average memory access latency per DRAM burst
system.mem_ctrls0.avgRdBW                       65.70                       # Average DRAM read bandwidth in MiByte/s
system.mem_ctrls0.avgWrBW                       22.20                       # Average achieved write bandwidth in MiByte/s
system.mem_ctrls0.avgRdBWSys                    65.71                       # Average system read bandwidth in MiByte/s
system.mem_ctrls0.avgWrBWSys                    22.20                       # Average system write bandwidth in MiByte/s
system.mem_ctrls0.peakBW                     12800.00                       # Theoretical peak bandwidth in MiByte/s
system.mem_ctrls0.busUtil                        0.69                       # Data bus utilization in percentage
system.mem_ctrls0.busUtilRead                    0.51                       # Data bus utilization in percentage for reads
system.mem_ctrls0.busUtilWrite                   0.17                       # Data bus utilization in percentage for writes
system.mem_ctrls0.avgRdQLen                      1.01                       # Average read queue length when enqueuing
system.mem_ctrls0.avgWrQLen                     24.40                       # Average write queue length when enqueuing
system.mem_ctrls0.readRowHits                   28822                       # Number of row buffer hits during reads
system.mem_ctrls0.writeRowHits                 173780                       # Number of row buffer hits during writes
system.mem_ctrls0.readRowHitRate                 1.78                       # Row buffer hit rate for reads
system.mem_ctrls0.writeRowHitRate               31.77                       # Row buffer hit rate for writes
system.mem_ctrls0.avgGap                    727999.36                       # Average gap between requests
system.mem_ctrls0.pageHitRate                    9.36                       # Row buffer hit rate, read and write combined
system.mem_ctrls0_0.actEnergy              7077389340                       # Energy for activate commands per rank (pJ)
system.mem_ctrls0_0.preEnergy              3761710260                       # Energy for precharge commands per rank (pJ)
system.mem_ctrls0_0.readEnergy             5846453340                       # Energy for read commands per rank (pJ)
system.mem_ctrls0_0.writeEnergy            1435661820                       # Energy for write commands per rank (pJ)
system.mem_ctrls0_0.refreshEnergy        125105054880.000031                       # Energy for refresh commands per rank (pJ)
system.mem_ctrls0_0.actBackEnergy         65759215080                       # Energy for active background per rank (pJ)
system.mem_ctrls0_0.preBackEnergy          6375809280                       # Energy for precharge background per rank (pJ)
system.mem_ctrls0_0.actPowerDownEnergy   346175527020                       # Energy for active power-down per rank (pJ)
system.mem_ctrls0_0.prePowerDownEnergy   169597885920                       # Energy for precharge power-down per rank (pJ)
system.mem_ctrls0_0.selfRefreshEnergy     68591021310                       # Energy for self refresh per rank (pJ)
system.mem_ctrls0_0.totalEnergy          799769268300                       # Total energy per rank (pJ)
system.mem_ctrls0_0.averagePower           507.292746                       # Core power per rank (mW)
system.mem_ctrls0_0.totalIdleTime        1415636369536                       # Total Idle time Per DRAM Rank
system.mem_ctrls0_0.memoryStateTime::IDLE   8997372044                       # Time in different power states
system.mem_ctrls0_0.memoryStateTime::REF  53110052000                       # Time in different power states
system.mem_ctrls0_0.memoryStateTime::SREF 214816587141                       # Time in different power states
system.mem_ctrls0_0.memoryStateTime::PRE_PDN 441660824130                       # Time in different power states
system.mem_ctrls0_0.memoryStateTime::ACT  98798638406                       # Time in different power states
system.mem_ctrls0_0.memoryStateTime::ACT_PDN 759160370313                       # Time in different power states
system.mem_ctrls0_1.actEnergy              6936224400                       # Energy for activate commands per rank (pJ)
system.mem_ctrls0_1.preEnergy              3686671725                       # Energy for precharge commands per rank (pJ)
system.mem_ctrls0_1.readEnergy             5708929800                       # Energy for read commands per rank (pJ)
system.mem_ctrls0_1.writeEnergy            1419114420                       # Energy for write commands per rank (pJ)
system.mem_ctrls0_1.refreshEnergy        126642269520.000031                       # Energy for refresh commands per rank (pJ)
system.mem_ctrls0_1.actBackEnergy         64753275660                       # Energy for active background per rank (pJ)
system.mem_ctrls0_1.preBackEnergy          6142667040                       # Energy for precharge background per rank (pJ)
system.mem_ctrls0_1.actPowerDownEnergy   354790681440                       # Energy for active power-down per rank (pJ)
system.mem_ctrls0_1.prePowerDownEnergy   174537513120                       # Energy for precharge power-down per rank (pJ)
system.mem_ctrls0_1.selfRefreshEnergy     60928639395                       # Energy for self refresh per rank (pJ)
system.mem_ctrls0_1.totalEnergy          805610015940                       # Total energy per rank (pJ)
system.mem_ctrls0_1.averagePower           510.997522                       # Core power per rank (mW)
system.mem_ctrls0_1.totalIdleTime        1418400619850                       # Total Idle time Per DRAM Rank
system.mem_ctrls0_1.memoryStateTime::IDLE   8686161168                       # Time in different power states
system.mem_ctrls0_1.memoryStateTime::REF  53753820000                       # Time in different power states
system.mem_ctrls0_1.memoryStateTime::SREF 185827630267                       # Time in different power states
system.mem_ctrls0_1.memoryStateTime::PRE_PDN 454524056052                       # Time in different power states
system.mem_ctrls0_1.memoryStateTime::ACT  95702507055                       # Time in different power states
system.mem_ctrls0_1.memoryStateTime::ACT_PDN 778049669492                       # Time in different power states
system.mem_ctrls1.pwrStateResidencyTicks::UNDEFINED 34879921768395                       # Cumulative time (in ticks) in various power states
system.mem_ctrls1.bytes_read::cpu.inst             64                       # Number of bytes read from this memory
system.mem_ctrls1.bytes_read::cpu.data            192                       # Number of bytes read from this memory
system.mem_ctrls1.bytes_read::switch_cpus.inst         8128                       # Number of bytes read from this memory
system.mem_ctrls1.bytes_read::switch_cpus.data     85931200                       # Number of bytes read from this memory
system.mem_ctrls1.bytes_read::switch_cpus_1.data     17595584                       # Number of bytes read from this memory
system.mem_ctrls1.bytes_read::total         103535168                       # Number of bytes read from this memory
system.mem_ctrls1.bytes_inst_read::cpu.inst           64                       # Number of instructions bytes read from this memory
system.mem_ctrls1.bytes_inst_read::switch_cpus.inst         8128                       # Number of instructions bytes read from this memory
system.mem_ctrls1.bytes_inst_read::total         8192                       # Number of instructions bytes read from this memory
system.mem_ctrls1.bytes_written::writebacks     34989056                       # Number of bytes written to this memory
system.mem_ctrls1.bytes_written::total       34989056                       # Number of bytes written to this memory
system.mem_ctrls1.num_reads::cpu.inst               1                       # Number of read requests responded to by this memory
system.mem_ctrls1.num_reads::cpu.data               3                       # Number of read requests responded to by this memory
system.mem_ctrls1.num_reads::switch_cpus.inst          127                       # Number of read requests responded to by this memory
system.mem_ctrls1.num_reads::switch_cpus.data      1342675                       # Number of read requests responded to by this memory
system.mem_ctrls1.num_reads::switch_cpus_1.data       274931                       # Number of read requests responded to by this memory
system.mem_ctrls1.num_reads::total            1617737                       # Number of read requests responded to by this memory
system.mem_ctrls1.num_writes::writebacks       546704                       # Number of write requests responded to by this memory
system.mem_ctrls1.num_writes::total            546704                       # Number of write requests responded to by this memory
system.mem_ctrls1.bw_read::cpu.inst                41                       # Total read bandwidth from this memory (bytes/s)
system.mem_ctrls1.bw_read::cpu.data               122                       # Total read bandwidth from this memory (bytes/s)
system.mem_ctrls1.bw_read::switch_cpus.inst         5156                       # Total read bandwidth from this memory (bytes/s)
system.mem_ctrls1.bw_read::switch_cpus.data     54506064                       # Total read bandwidth from this memory (bytes/s)
system.mem_ctrls1.bw_read::switch_cpus_1.data     11160859                       # Total read bandwidth from this memory (bytes/s)
system.mem_ctrls1.bw_read::total             65672241                       # Total read bandwidth from this memory (bytes/s)
system.mem_ctrls1.bw_inst_read::cpu.inst           41                       # Instruction read bandwidth from this memory (bytes/s)
system.mem_ctrls1.bw_inst_read::switch_cpus.inst         5156                       # Instruction read bandwidth from this memory (bytes/s)
system.mem_ctrls1.bw_inst_read::total            5196                       # Instruction read bandwidth from this memory (bytes/s)
system.mem_ctrls1.bw_write::writebacks       22193519                       # Write bandwidth from this memory (bytes/s)
system.mem_ctrls1.bw_write::total            22193519                       # Write bandwidth from this memory (bytes/s)
system.mem_ctrls1.bw_total::writebacks       22193519                       # Total bandwidth to/from this memory (bytes/s)
system.mem_ctrls1.bw_total::cpu.inst               41                       # Total bandwidth to/from this memory (bytes/s)
system.mem_ctrls1.bw_total::cpu.data              122                       # Total bandwidth to/from this memory (bytes/s)
system.mem_ctrls1.bw_total::switch_cpus.inst         5156                       # Total bandwidth to/from this memory (bytes/s)
system.mem_ctrls1.bw_total::switch_cpus.data     54506064                       # Total bandwidth to/from this memory (bytes/s)
system.mem_ctrls1.bw_total::switch_cpus_1.data     11160859                       # Total bandwidth to/from this memory (bytes/s)
system.mem_ctrls1.bw_total::total            87865761                       # Total bandwidth to/from this memory (bytes/s)
system.mem_ctrls1.readReqs                    1617737                       # Number of read requests accepted
system.mem_ctrls1.writeReqs                    546704                       # Number of write requests accepted
system.mem_ctrls1.readBursts                  1617737                       # Number of DRAM read bursts, including those serviced by the write queue
system.mem_ctrls1.writeBursts                  546704                       # Number of DRAM write bursts, including those merged in the write queue
system.mem_ctrls1.bytesReadDRAM             103517504                       # Total number of bytes read from DRAM
system.mem_ctrls1.bytesReadWrQ                  17664                       # Total number of bytes read from write queue
system.mem_ctrls1.bytesWritten               34987648                       # Total number of bytes written to DRAM
system.mem_ctrls1.bytesReadSys              103535168                       # Total read bytes from the system interface side
system.mem_ctrls1.bytesWrittenSys            34989056                       # Total written bytes from the system interface side
system.mem_ctrls1.servicedByWrQ                   276                       # Number of DRAM read bursts serviced by the write queue
system.mem_ctrls1.mergedWrBursts                    0                       # Number of DRAM write bursts merged with an existing one
system.mem_ctrls1.neitherReadNorWriteReqs            0                       # Number of requests that are neither read nor write
system.mem_ctrls1.perBankRdBursts::0           105661                       # Per bank write bursts
system.mem_ctrls1.perBankRdBursts::1           102973                       # Per bank write bursts
system.mem_ctrls1.perBankRdBursts::2           103525                       # Per bank write bursts
system.mem_ctrls1.perBankRdBursts::3           101189                       # Per bank write bursts
system.mem_ctrls1.perBankRdBursts::4           101261                       # Per bank write bursts
system.mem_ctrls1.perBankRdBursts::5           101130                       # Per bank write bursts
system.mem_ctrls1.perBankRdBursts::6           100616                       # Per bank write bursts
system.mem_ctrls1.perBankRdBursts::7           101473                       # Per bank write bursts
system.mem_ctrls1.perBankRdBursts::8           100739                       # Per bank write bursts
system.mem_ctrls1.perBankRdBursts::9            99235                       # Per bank write bursts
system.mem_ctrls1.perBankRdBursts::10           99585                       # Per bank write bursts
system.mem_ctrls1.perBankRdBursts::11           99454                       # Per bank write bursts
system.mem_ctrls1.perBankRdBursts::12           98275                       # Per bank write bursts
system.mem_ctrls1.perBankRdBursts::13           98323                       # Per bank write bursts
system.mem_ctrls1.perBankRdBursts::14          100692                       # Per bank write bursts
system.mem_ctrls1.perBankRdBursts::15          103330                       # Per bank write bursts
system.mem_ctrls1.perBankWrBursts::0            36444                       # Per bank write bursts
system.mem_ctrls1.perBankWrBursts::1            35326                       # Per bank write bursts
system.mem_ctrls1.perBankWrBursts::2            34736                       # Per bank write bursts
system.mem_ctrls1.perBankWrBursts::3            33735                       # Per bank write bursts
system.mem_ctrls1.perBankWrBursts::4            33637                       # Per bank write bursts
system.mem_ctrls1.perBankWrBursts::5            33531                       # Per bank write bursts
system.mem_ctrls1.perBankWrBursts::6            33460                       # Per bank write bursts
system.mem_ctrls1.perBankWrBursts::7            33936                       # Per bank write bursts
system.mem_ctrls1.perBankWrBursts::8            33587                       # Per bank write bursts
system.mem_ctrls1.perBankWrBursts::9            33384                       # Per bank write bursts
system.mem_ctrls1.perBankWrBursts::10           33882                       # Per bank write bursts
system.mem_ctrls1.perBankWrBursts::11           33779                       # Per bank write bursts
system.mem_ctrls1.perBankWrBursts::12           33554                       # Per bank write bursts
system.mem_ctrls1.perBankWrBursts::13           33645                       # Per bank write bursts
system.mem_ctrls1.perBankWrBursts::14           34473                       # Per bank write bursts
system.mem_ctrls1.perBankWrBursts::15           35573                       # Per bank write bursts
system.mem_ctrls1.numRdRetry                        0                       # Number of times read queue was full causing retry
system.mem_ctrls1.numWrRetry                        0                       # Number of times write queue was full causing retry
system.mem_ctrls1.totGap                 1576543363848                       # Total gap between requests
system.mem_ctrls1.readPktSize::0                    0                       # Read request sizes (log2)
system.mem_ctrls1.readPktSize::1                    0                       # Read request sizes (log2)
system.mem_ctrls1.readPktSize::2                    0                       # Read request sizes (log2)
system.mem_ctrls1.readPktSize::3                    0                       # Read request sizes (log2)
system.mem_ctrls1.readPktSize::4                    0                       # Read request sizes (log2)
system.mem_ctrls1.readPktSize::5                    0                       # Read request sizes (log2)
system.mem_ctrls1.readPktSize::6              1617737                       # Read request sizes (log2)
system.mem_ctrls1.writePktSize::0                   0                       # Write request sizes (log2)
system.mem_ctrls1.writePktSize::1                   0                       # Write request sizes (log2)
system.mem_ctrls1.writePktSize::2                   0                       # Write request sizes (log2)
system.mem_ctrls1.writePktSize::3                   0                       # Write request sizes (log2)
system.mem_ctrls1.writePktSize::4                   0                       # Write request sizes (log2)
system.mem_ctrls1.writePktSize::5                   0                       # Write request sizes (log2)
system.mem_ctrls1.writePktSize::6              546704                       # Write request sizes (log2)
system.mem_ctrls1.rdQLenPdf::0                1517318                       # What read queue length does an incoming req see
system.mem_ctrls1.rdQLenPdf::1                  88467                       # What read queue length does an incoming req see
system.mem_ctrls1.rdQLenPdf::2                  11041                       # What read queue length does an incoming req see
system.mem_ctrls1.rdQLenPdf::3                    635                       # What read queue length does an incoming req see
system.mem_ctrls1.rdQLenPdf::4                      0                       # What read queue length does an incoming req see
system.mem_ctrls1.rdQLenPdf::5                      0                       # What read queue length does an incoming req see
system.mem_ctrls1.rdQLenPdf::6                      0                       # What read queue length does an incoming req see
system.mem_ctrls1.rdQLenPdf::7                      0                       # What read queue length does an incoming req see
system.mem_ctrls1.rdQLenPdf::8                      0                       # What read queue length does an incoming req see
system.mem_ctrls1.rdQLenPdf::9                      0                       # What read queue length does an incoming req see
system.mem_ctrls1.rdQLenPdf::10                     0                       # What read queue length does an incoming req see
system.mem_ctrls1.rdQLenPdf::11                     0                       # What read queue length does an incoming req see
system.mem_ctrls1.rdQLenPdf::12                     0                       # What read queue length does an incoming req see
system.mem_ctrls1.rdQLenPdf::13                     0                       # What read queue length does an incoming req see
system.mem_ctrls1.rdQLenPdf::14                     0                       # What read queue length does an incoming req see
system.mem_ctrls1.rdQLenPdf::15                     0                       # What read queue length does an incoming req see
system.mem_ctrls1.rdQLenPdf::16                     0                       # What read queue length does an incoming req see
system.mem_ctrls1.rdQLenPdf::17                     0                       # What read queue length does an incoming req see
system.mem_ctrls1.rdQLenPdf::18                     0                       # What read queue length does an incoming req see
system.mem_ctrls1.rdQLenPdf::19                     0                       # What read queue length does an incoming req see
system.mem_ctrls1.rdQLenPdf::20                     0                       # What read queue length does an incoming req see
system.mem_ctrls1.rdQLenPdf::21                     0                       # What read queue length does an incoming req see
system.mem_ctrls1.rdQLenPdf::22                     0                       # What read queue length does an incoming req see
system.mem_ctrls1.rdQLenPdf::23                     0                       # What read queue length does an incoming req see
system.mem_ctrls1.rdQLenPdf::24                     0                       # What read queue length does an incoming req see
system.mem_ctrls1.rdQLenPdf::25                     0                       # What read queue length does an incoming req see
system.mem_ctrls1.rdQLenPdf::26                     0                       # What read queue length does an incoming req see
system.mem_ctrls1.rdQLenPdf::27                     0                       # What read queue length does an incoming req see
system.mem_ctrls1.rdQLenPdf::28                     0                       # What read queue length does an incoming req see
system.mem_ctrls1.rdQLenPdf::29                     0                       # What read queue length does an incoming req see
system.mem_ctrls1.rdQLenPdf::30                     0                       # What read queue length does an incoming req see
system.mem_ctrls1.rdQLenPdf::31                     0                       # What read queue length does an incoming req see
system.mem_ctrls1.wrQLenPdf::0                      2                       # What write queue length does an incoming req see
system.mem_ctrls1.wrQLenPdf::1                      2                       # What write queue length does an incoming req see
system.mem_ctrls1.wrQLenPdf::2                      2                       # What write queue length does an incoming req see
system.mem_ctrls1.wrQLenPdf::3                      2                       # What write queue length does an incoming req see
system.mem_ctrls1.wrQLenPdf::4                      2                       # What write queue length does an incoming req see
system.mem_ctrls1.wrQLenPdf::5                      2                       # What write queue length does an incoming req see
system.mem_ctrls1.wrQLenPdf::6                      2                       # What write queue length does an incoming req see
system.mem_ctrls1.wrQLenPdf::7                      2                       # What write queue length does an incoming req see
system.mem_ctrls1.wrQLenPdf::8                      2                       # What write queue length does an incoming req see
system.mem_ctrls1.wrQLenPdf::9                      2                       # What write queue length does an incoming req see
system.mem_ctrls1.wrQLenPdf::10                     2                       # What write queue length does an incoming req see
system.mem_ctrls1.wrQLenPdf::11                     2                       # What write queue length does an incoming req see
system.mem_ctrls1.wrQLenPdf::12                     2                       # What write queue length does an incoming req see
system.mem_ctrls1.wrQLenPdf::13                     2                       # What write queue length does an incoming req see
system.mem_ctrls1.wrQLenPdf::14                     2                       # What write queue length does an incoming req see
system.mem_ctrls1.wrQLenPdf::15                 18158                       # What write queue length does an incoming req see
system.mem_ctrls1.wrQLenPdf::16                 18755                       # What write queue length does an incoming req see
system.mem_ctrls1.wrQLenPdf::17                 30531                       # What write queue length does an incoming req see
system.mem_ctrls1.wrQLenPdf::18                 31781                       # What write queue length does an incoming req see
system.mem_ctrls1.wrQLenPdf::19                 31907                       # What write queue length does an incoming req see
system.mem_ctrls1.wrQLenPdf::20                 31944                       # What write queue length does an incoming req see
system.mem_ctrls1.wrQLenPdf::21                 31921                       # What write queue length does an incoming req see
system.mem_ctrls1.wrQLenPdf::22                 31959                       # What write queue length does an incoming req see
system.mem_ctrls1.wrQLenPdf::23                 31948                       # What write queue length does an incoming req see
system.mem_ctrls1.wrQLenPdf::24                 32004                       # What write queue length does an incoming req see
system.mem_ctrls1.wrQLenPdf::25                 32297                       # What write queue length does an incoming req see
system.mem_ctrls1.wrQLenPdf::26                 32046                       # What write queue length does an incoming req see
system.mem_ctrls1.wrQLenPdf::27                 31956                       # What write queue length does an incoming req see
system.mem_ctrls1.wrQLenPdf::28                 31992                       # What write queue length does an incoming req see
system.mem_ctrls1.wrQLenPdf::29                 31912                       # What write queue length does an incoming req see
system.mem_ctrls1.wrQLenPdf::30                 31921                       # What write queue length does an incoming req see
system.mem_ctrls1.wrQLenPdf::31                 31795                       # What write queue length does an incoming req see
system.mem_ctrls1.wrQLenPdf::32                 31778                       # What write queue length does an incoming req see
system.mem_ctrls1.wrQLenPdf::33                    64                       # What write queue length does an incoming req see
system.mem_ctrls1.wrQLenPdf::34                     5                       # What write queue length does an incoming req see
system.mem_ctrls1.wrQLenPdf::35                     0                       # What write queue length does an incoming req see
system.mem_ctrls1.wrQLenPdf::36                     0                       # What write queue length does an incoming req see
system.mem_ctrls1.wrQLenPdf::37                     0                       # What write queue length does an incoming req see
system.mem_ctrls1.wrQLenPdf::38                     0                       # What write queue length does an incoming req see
system.mem_ctrls1.wrQLenPdf::39                     0                       # What write queue length does an incoming req see
system.mem_ctrls1.wrQLenPdf::40                     0                       # What write queue length does an incoming req see
system.mem_ctrls1.wrQLenPdf::41                     0                       # What write queue length does an incoming req see
system.mem_ctrls1.wrQLenPdf::42                     0                       # What write queue length does an incoming req see
system.mem_ctrls1.wrQLenPdf::43                     0                       # What write queue length does an incoming req see
system.mem_ctrls1.wrQLenPdf::44                     0                       # What write queue length does an incoming req see
system.mem_ctrls1.wrQLenPdf::45                     0                       # What write queue length does an incoming req see
system.mem_ctrls1.wrQLenPdf::46                     0                       # What write queue length does an incoming req see
system.mem_ctrls1.wrQLenPdf::47                     0                       # What write queue length does an incoming req see
system.mem_ctrls1.wrQLenPdf::48                     0                       # What write queue length does an incoming req see
system.mem_ctrls1.wrQLenPdf::49                     0                       # What write queue length does an incoming req see
system.mem_ctrls1.wrQLenPdf::50                     0                       # What write queue length does an incoming req see
system.mem_ctrls1.wrQLenPdf::51                     0                       # What write queue length does an incoming req see
system.mem_ctrls1.wrQLenPdf::52                     0                       # What write queue length does an incoming req see
system.mem_ctrls1.wrQLenPdf::53                     0                       # What write queue length does an incoming req see
system.mem_ctrls1.wrQLenPdf::54                     0                       # What write queue length does an incoming req see
system.mem_ctrls1.wrQLenPdf::55                     0                       # What write queue length does an incoming req see
system.mem_ctrls1.wrQLenPdf::56                     0                       # What write queue length does an incoming req see
system.mem_ctrls1.wrQLenPdf::57                     0                       # What write queue length does an incoming req see
system.mem_ctrls1.wrQLenPdf::58                     0                       # What write queue length does an incoming req see
system.mem_ctrls1.wrQLenPdf::59                     0                       # What write queue length does an incoming req see
system.mem_ctrls1.wrQLenPdf::60                     0                       # What write queue length does an incoming req see
system.mem_ctrls1.wrQLenPdf::61                     0                       # What write queue length does an incoming req see
system.mem_ctrls1.wrQLenPdf::62                     0                       # What write queue length does an incoming req see
system.mem_ctrls1.wrQLenPdf::63                     0                       # What write queue length does an incoming req see
system.mem_ctrls1.bytesPerActivate::samples      1962111                       # Bytes accessed per row activation
system.mem_ctrls1.bytesPerActivate::mean    70.589637                       # Bytes accessed per row activation
system.mem_ctrls1.bytesPerActivate::gmean    67.735352                       # Bytes accessed per row activation
system.mem_ctrls1.bytesPerActivate::stdev    31.285932                       # Bytes accessed per row activation
system.mem_ctrls1.bytesPerActivate::0-127      1840243     93.79%     93.79% # Bytes accessed per row activation
system.mem_ctrls1.bytesPerActivate::128-255       101393      5.17%     98.96% # Bytes accessed per row activation
system.mem_ctrls1.bytesPerActivate::256-383        16567      0.84%     99.80% # Bytes accessed per row activation
system.mem_ctrls1.bytesPerActivate::384-511         3252      0.17%     99.97% # Bytes accessed per row activation
system.mem_ctrls1.bytesPerActivate::512-639          526      0.03%     99.99% # Bytes accessed per row activation
system.mem_ctrls1.bytesPerActivate::640-767          102      0.01%    100.00% # Bytes accessed per row activation
system.mem_ctrls1.bytesPerActivate::768-895           18      0.00%    100.00% # Bytes accessed per row activation
system.mem_ctrls1.bytesPerActivate::896-1023            8      0.00%    100.00% # Bytes accessed per row activation
system.mem_ctrls1.bytesPerActivate::1024-1151            2      0.00%    100.00% # Bytes accessed per row activation
system.mem_ctrls1.bytesPerActivate::total      1962111                       # Bytes accessed per row activation
system.mem_ctrls1.rdPerTurnAround::samples        31770                       # Reads before turning the bus around for writes
system.mem_ctrls1.rdPerTurnAround::mean     50.911237                       # Reads before turning the bus around for writes
system.mem_ctrls1.rdPerTurnAround::gmean    48.110428                       # Reads before turning the bus around for writes
system.mem_ctrls1.rdPerTurnAround::stdev   115.135050                       # Reads before turning the bus around for writes
system.mem_ctrls1.rdPerTurnAround::0-1023        31767     99.99%     99.99% # Reads before turning the bus around for writes
system.mem_ctrls1.rdPerTurnAround::1024-2047            1      0.00%     99.99% # Reads before turning the bus around for writes
system.mem_ctrls1.rdPerTurnAround::2048-3071            1      0.00%    100.00% # Reads before turning the bus around for writes
system.mem_ctrls1.rdPerTurnAround::19456-20479            1      0.00%    100.00% # Reads before turning the bus around for writes
system.mem_ctrls1.rdPerTurnAround::total        31770                       # Reads before turning the bus around for writes
system.mem_ctrls1.wrPerTurnAround::samples        31770                       # Writes before turning the bus around for reads
system.mem_ctrls1.wrPerTurnAround::mean     17.207491                       # Writes before turning the bus around for reads
system.mem_ctrls1.wrPerTurnAround::gmean    17.175841                       # Writes before turning the bus around for reads
system.mem_ctrls1.wrPerTurnAround::stdev     1.039589                       # Writes before turning the bus around for reads
system.mem_ctrls1.wrPerTurnAround::16           13055     41.09%     41.09% # Writes before turning the bus around for reads
system.mem_ctrls1.wrPerTurnAround::17             481      1.51%     42.61% # Writes before turning the bus around for reads
system.mem_ctrls1.wrPerTurnAround::18           16904     53.21%     95.81% # Writes before turning the bus around for reads
system.mem_ctrls1.wrPerTurnAround::19            1251      3.94%     99.75% # Writes before turning the bus around for reads
system.mem_ctrls1.wrPerTurnAround::20              75      0.24%     99.99% # Writes before turning the bus around for reads
system.mem_ctrls1.wrPerTurnAround::21               4      0.01%    100.00% # Writes before turning the bus around for reads
system.mem_ctrls1.wrPerTurnAround::total        31770                       # Writes before turning the bus around for reads
system.mem_ctrls1.totQLat                 86785811805                       # Total ticks spent queuing
system.mem_ctrls1.totMemAccLat           117113205555                       # Total ticks spent from burst creation until serviced by the DRAM
system.mem_ctrls1.totBusLat                8087305000                       # Total ticks spent in databus transfers
system.mem_ctrls1.avgQLat                    53655.58                       # Average queueing delay per DRAM burst
system.mem_ctrls1.avgBusLat                   5000.00                       # Average bus latency per DRAM burst
system.mem_ctrls1.avgMemAccLat               72405.58                       # Average memory access latency per DRAM burst
system.mem_ctrls1.avgRdBW                       65.66                       # Average DRAM read bandwidth in MiByte/s
system.mem_ctrls1.avgWrBW                       22.19                       # Average achieved write bandwidth in MiByte/s
system.mem_ctrls1.avgRdBWSys                    65.67                       # Average system read bandwidth in MiByte/s
system.mem_ctrls1.avgWrBWSys                    22.19                       # Average system write bandwidth in MiByte/s
system.mem_ctrls1.peakBW                     12800.00                       # Theoretical peak bandwidth in MiByte/s
system.mem_ctrls1.busUtil                        0.69                       # Data bus utilization in percentage
system.mem_ctrls1.busUtilRead                    0.51                       # Data bus utilization in percentage for reads
system.mem_ctrls1.busUtilWrite                   0.17                       # Data bus utilization in percentage for writes
system.mem_ctrls1.avgRdQLen                      1.01                       # Average read queue length when enqueuing
system.mem_ctrls1.avgWrQLen                     24.39                       # Average write queue length when enqueuing
system.mem_ctrls1.readRowHits                   28686                       # Number of row buffer hits during reads
system.mem_ctrls1.writeRowHits                 173339                       # Number of row buffer hits during writes
system.mem_ctrls1.readRowHitRate                 1.77                       # Row buffer hit rate for reads
system.mem_ctrls1.writeRowHitRate               31.71                       # Row buffer hit rate for writes
system.mem_ctrls1.avgGap                    728383.62                       # Average gap between requests
system.mem_ctrls1.pageHitRate                    9.34                       # Row buffer hit rate, read and write combined
system.mem_ctrls1_0.actEnergy              7073426640                       # Energy for activate commands per rank (pJ)
system.mem_ctrls1_0.preEnergy              3759592650                       # Energy for precharge commands per rank (pJ)
system.mem_ctrls1_0.readEnergy             5839291920                       # Energy for read commands per rank (pJ)
system.mem_ctrls1_0.writeEnergy            1434482100                       # Energy for write commands per rank (pJ)
system.mem_ctrls1_0.refreshEnergy        125192333760.000031                       # Energy for refresh commands per rank (pJ)
system.mem_ctrls1_0.actBackEnergy         65689574760                       # Energy for active background per rank (pJ)
system.mem_ctrls1_0.preBackEnergy          6368185440                       # Energy for precharge background per rank (pJ)
system.mem_ctrls1_0.actPowerDownEnergy   346485092310                       # Energy for active power-down per rank (pJ)
system.mem_ctrls1_0.prePowerDownEnergy   169832718720                       # Energy for precharge power-down per rank (pJ)
system.mem_ctrls1_0.selfRefreshEnergy     68323093980                       # Energy for self refresh per rank (pJ)
system.mem_ctrls1_0.totalEnergy          800044382970                       # Total energy per rank (pJ)
system.mem_ctrls1_0.averagePower           507.467253                       # Core power per rank (mW)
system.mem_ctrls1_0.totalIdleTime        1415800526078                       # Total Idle time Per DRAM Rank
system.mem_ctrls1_0.memoryStateTime::IDLE   8987629765                       # Time in different power states
system.mem_ctrls1_0.memoryStateTime::REF  53147296000                       # Time in different power states
system.mem_ctrls1_0.memoryStateTime::SREF 213691987352                       # Time in different power states
system.mem_ctrls1_0.memoryStateTime::PRE_PDN 442273380548                       # Time in different power states
system.mem_ctrls1_0.memoryStateTime::ACT  98607869017                       # Time in different power states
system.mem_ctrls1_0.memoryStateTime::ACT_PDN 759835681352                       # Time in different power states
system.mem_ctrls1_1.actEnergy              6936095880                       # Energy for activate commands per rank (pJ)
system.mem_ctrls1_1.preEnergy              3686618595                       # Energy for precharge commands per rank (pJ)
system.mem_ctrls1_1.readEnergy             5709379620                       # Energy for read commands per rank (pJ)
system.mem_ctrls1_1.writeEnergy            1419197940                       # Energy for write commands per rank (pJ)
system.mem_ctrls1_1.refreshEnergy        126657635520.000031                       # Energy for refresh commands per rank (pJ)
system.mem_ctrls1_1.actBackEnergy         64400300310                       # Energy for active background per rank (pJ)
system.mem_ctrls1_1.preBackEnergy          6143984640                       # Energy for precharge background per rank (pJ)
system.mem_ctrls1_1.actPowerDownEnergy   355115941110                       # Energy for active power-down per rank (pJ)
system.mem_ctrls1_1.prePowerDownEnergy   174673412640                       # Energy for precharge power-down per rank (pJ)
system.mem_ctrls1_1.selfRefreshEnergy     60848770170                       # Energy for self refresh per rank (pJ)
system.mem_ctrls1_1.totalEnergy          805652620785                       # Total energy per rank (pJ)
system.mem_ctrls1_1.averagePower           511.024547                       # Core power per rank (mW)
system.mem_ctrls1_1.totalIdleTime        1419180534973                       # Total Idle time Per DRAM Rank
system.mem_ctrls1_1.memoryStateTime::IDLE   8675222659                       # Time in different power states
system.mem_ctrls1_1.memoryStateTime::REF  53760092000                       # Time in different power states
system.mem_ctrls1_1.memoryStateTime::SREF 185537189081                       # Time in different power states
system.mem_ctrls1_1.memoryStateTime::PRE_PDN 454879840150                       # Time in different power states
system.mem_ctrls1_1.memoryStateTime::ACT  94927797804                       # Time in different power states
system.mem_ctrls1_1.memoryStateTime::ACT_PDN 778763702340                       # Time in different power states
system.pwrStateResidencyTicks::UNDEFINED 34879921768395                       # Cumulative time (in ticks) in various power states
system.cpu.branchPred.lookups                       0                       # Number of BP lookups
system.cpu.branchPred.condPredicted                 0                       # Number of conditional branches predicted
system.cpu.branchPred.condIncorrect                 0                       # Number of conditional branches incorrect
system.cpu.branchPred.BTBLookups                    0                       # Number of BTB lookups
system.cpu.branchPred.BTBHits                       0                       # Number of BTB hits
system.cpu.branchPred.BTBCorrect                    0                       # Number of correct BTB predictions (this stat may not work properly.
system.cpu.branchPred.BTBHitPct                   nan                       # BTB Hit Percentage
system.cpu.branchPred.usedRAS                       0                       # Number of times the RAS was used to get a target.
system.cpu.branchPred.RASInCorrect                  0                       # Number of incorrect RAS predictions.
system.cpu.branchPred.indirectLookups               0                       # Number of indirect predictor lookups.
system.cpu.branchPred.indirectHits                  0                       # Number of indirect target hits.
system.cpu.branchPred.indirectMisses                0                       # Number of indirect misses.
system.cpu.branchPredindirectMispredicted            0                       # Number of mispredicted indirect branches.
system.cpu_voltage_domain.voltage                   1                       # Voltage in Volts
system.cpu_clk_domain.clock                       333                       # Clock period in ticks
system.cpu.dtb.fetch_hits                           0                       # ITB hits
system.cpu.dtb.fetch_misses                         0                       # ITB misses
system.cpu.dtb.fetch_acv                            0                       # ITB acv
system.cpu.dtb.fetch_accesses                       0                       # ITB accesses
system.cpu.dtb.read_hits                           16                       # DTB read hits
system.cpu.dtb.read_misses                          0                       # DTB read misses
system.cpu.dtb.read_acv                             0                       # DTB read access violations
system.cpu.dtb.read_accesses                       16                       # DTB read accesses
system.cpu.dtb.write_hits                           1                       # DTB write hits
system.cpu.dtb.write_misses                         0                       # DTB write misses
system.cpu.dtb.write_acv                            0                       # DTB write access violations
system.cpu.dtb.write_accesses                       1                       # DTB write accesses
system.cpu.dtb.data_hits                           17                       # DTB hits
system.cpu.dtb.data_misses                          0                       # DTB misses
system.cpu.dtb.data_acv                             0                       # DTB access violations
system.cpu.dtb.data_accesses                       17                       # DTB accesses
system.cpu.itb.fetch_hits                           4                       # ITB hits
system.cpu.itb.fetch_misses                         0                       # ITB misses
system.cpu.itb.fetch_acv                            0                       # ITB acv
system.cpu.itb.fetch_accesses                       4                       # ITB accesses
system.cpu.itb.read_hits                            0                       # DTB read hits
system.cpu.itb.read_misses                          0                       # DTB read misses
system.cpu.itb.read_acv                             0                       # DTB read access violations
system.cpu.itb.read_accesses                        0                       # DTB read accesses
system.cpu.itb.write_hits                           0                       # DTB write hits
system.cpu.itb.write_misses                         0                       # DTB write misses
system.cpu.itb.write_acv                            0                       # DTB write access violations
system.cpu.itb.write_accesses                       0                       # DTB write accesses
system.cpu.itb.data_hits                            0                       # DTB hits
system.cpu.itb.data_misses                          0                       # DTB misses
system.cpu.itb.data_acv                             0                       # DTB access violations
system.cpu.itb.data_accesses                        0                       # DTB accesses
system.cpu.workload.num_syscalls                    0                       # Number of system calls
system.cpu.pwrStateResidencyTicks::ON    1576543844034                       # Cumulative time (in ticks) in various power states
system.cpu.numCycles                             1036                       # number of cpu cycles simulated
system.cpu.numWorkItemsStarted                      0                       # number of work items this cpu started
system.cpu.numWorkItemsCompleted                    0                       # number of work items this cpu completed
system.cpu.fetch.icacheStallCycles                 65                       # Number of cycles fetch is stalled on an Icache miss
system.cpu.fetch.Insts                             17                       # Number of instructions fetch has processed
system.cpu.fetch.Cycles                             3                       # Number of cycles fetch has run and was not squashing or blocked
system.cpu.fetch.SquashCycles                       3                       # Number of cycles fetch has spent squashing
system.cpu.fetch.PendingDrainCycles                 6                       # Number of cycles fetch has spent waiting on pipes to drain
system.cpu.fetch.CacheLines                         4                       # Number of cache lines fetched
system.cpu.fetch.IcacheSquashes                     2                       # Number of outstanding Icache misses that were squashed
system.cpu.fetch.rateDist::samples                 75                       # Number of instructions fetched each cycle (Total)
system.cpu.fetch.rateDist::mean              0.226667                       # Number of instructions fetched each cycle (Total)
system.cpu.fetch.rateDist::stdev             1.300450                       # Number of instructions fetched each cycle (Total)
system.cpu.fetch.rateDist::underflows               0      0.00%      0.00% # Number of instructions fetched each cycle (Total)
system.cpu.fetch.rateDist::0                       72     96.00%     96.00% # Number of instructions fetched each cycle (Total)
system.cpu.fetch.rateDist::1                        1      1.33%     97.33% # Number of instructions fetched each cycle (Total)
system.cpu.fetch.rateDist::2                        0      0.00%     97.33% # Number of instructions fetched each cycle (Total)
system.cpu.fetch.rateDist::3                        0      0.00%     97.33% # Number of instructions fetched each cycle (Total)
system.cpu.fetch.rateDist::4                        0      0.00%     97.33% # Number of instructions fetched each cycle (Total)
system.cpu.fetch.rateDist::5                        0      0.00%     97.33% # Number of instructions fetched each cycle (Total)
system.cpu.fetch.rateDist::6                        0      0.00%     97.33% # Number of instructions fetched each cycle (Total)
system.cpu.fetch.rateDist::7                        0      0.00%     97.33% # Number of instructions fetched each cycle (Total)
system.cpu.fetch.rateDist::8                        2      2.67%    100.00% # Number of instructions fetched each cycle (Total)
system.cpu.fetch.rateDist::overflows                0      0.00%    100.00% # Number of instructions fetched each cycle (Total)
system.cpu.fetch.rateDist::min_value                0                       # Number of instructions fetched each cycle (Total)
[...]
system.switch_cpus_1.iq.rate                 1.397816                       # Inst issue rate
system.switch_cpus_1.iq.fu_busy_cnt          15086753                       # FU busy when requested
system.switch_cpus_1.iq.fu_busy_rate         0.073336                       # FU busy rate (busy events/executed inst)
system.switch_cpus_1.iq.int_inst_queue_reads    207544530                       # Number of integer instruction queue reads
system.switch_cpus_1.iq.int_inst_queue_writes     28241573                       # Number of integer instruction queue writes
system.switch_cpus_1.iq.int_inst_queue_wakeup_accesses     27843120                       # Number of integer instruction queue wakeup accesses
system.switch_cpus_1.iq.fp_inst_queue_reads    366192923                       # Number of floating instruction queue reads
system.switch_cpus_1.iq.fp_inst_queue_writes    173985780                       # Number of floating instruction queue writes
system.switch_cpus_1.iq.fp_inst_queue_wakeup_accesses    172769207                       # Number of floating instruction queue wakeup accesses
system.switch_cpus_1.iq.int_alu_accesses     31648160                       # Number of integer alu accesses
system.switch_cpus_1.iq.fp_alu_accesses     189159678                       # Number of floating point alu accesses
system.switch_cpus_1.iew.lsq.thread0.forwLoads      9187433                       # Number of loads that had data forwarded from stores
system.switch_cpus_1.iew.lsq.thread0.invAddrLoads            0                       # Number of loads ignored due to an invalid address
system.switch_cpus_1.iew.lsq.thread0.squashedLoads       414125                       # Number of loads squashed
system.switch_cpus_1.iew.lsq.thread0.ignoredResponses          381                       # Number of memory responses ignored because the instruction is squashed
system.switch_cpus_1.iew.lsq.thread0.memOrderViolation        20777                       # Number of memory ordering violations
system.switch_cpus_1.iew.lsq.thread0.squashedStores       221159                       # Number of stores squashed
system.switch_cpus_1.iew.lsq.thread0.invAddrSwpfs            0                       # Number of software prefetches ignored due to an invalid address
system.switch_cpus_1.iew.lsq.thread0.blockedLoads            0                       # Number of blocked loads due to partial load-store forwarding
system.switch_cpus_1.iew.lsq.thread0.rescheduledLoads            0                       # Number of loads that were rescheduled
system.switch_cpus_1.iew.lsq.thread0.cacheBlocked      5201599                       # Number of times an access to memory failed due to the cache being blocked
system.switch_cpus_1.iew.iewIdleCycles              0                       # Number of cycles IEW is idle
system.switch_cpus_1.iew.iewSquashCycles        25079                       # Number of cycles IEW is squashing
system.switch_cpus_1.iew.iewBlockCycles      17709058                       # Number of cycles IEW is blocking
system.switch_cpus_1.iew.iewUnblockCycles     26289294                       # Number of cycles IEW is unblocking
system.switch_cpus_1.iew.iewDispatchedInsts    201103364                       # Number of instructions dispatched to IQ
system.switch_cpus_1.iew.iewDispSquashedInsts         2130                       # Number of squashed instructions skipped by dispatch
system.switch_cpus_1.iew.iewDispLoadInsts     82548044                       # Number of dispatched load instructions
system.switch_cpus_1.iew.iewDispStoreInsts     38175915                       # Number of dispatched store instructions
system.switch_cpus_1.iew.iewDispNonSpecInsts            0                       # Number of dispatched non-speculative instructions
system.switch_cpus_1.iew.iewIQFullEvents        19945                       # Number of times the IQ has become full, causing a stall
system.switch_cpus_1.iew.iewLSQFullEvents     26198307                       # Number of times the LSQ has become full, causing a stall
system.switch_cpus_1.iew.memOrderViolationEvents        20777                       # Number of memory order violations
system.switch_cpus_1.iew.predictedTakenIncorrect         1397                       # Number of branches that were predicted taken incorrectly
system.switch_cpus_1.iew.predictedNotTakenIncorrect           68                       # Number of branches that were predicted not taken incorrectly
system.switch_cpus_1.iew.branchMispredicts         1465                       # Number of branch mispredicts detected at execute
system.switch_cpus_1.iew.iewExecutedInsts    205657445                       # Number of executed instructions
system.switch_cpus_1.iew.iewExecLoadInsts     87388775                       # Number of load instructions executed
system.switch_cpus_1.iew.iewExecSquashedInsts        63632                       # Number of squashed instructions skipped in execute
system.switch_cpus_1.iew.exec_swp                   0                       # number of swp insts executed
system.switch_cpus_1.iew.exec_nop                  27                       # number of nop insts executed
system.switch_cpus_1.iew.exec_refs          125439557                       # number of memory reference insts executed
system.switch_cpus_1.iew.exec_branches         171870                       # Number of branches executed
system.switch_cpus_1.iew.exec_stores         38050782                       # Number of stores executed
system.switch_cpus_1.iew.exec_rate           1.397384                       # Inst execution rate
system.switch_cpus_1.iew.wb_sent            200668902                       # cumulative count of insts sent to commit
system.switch_cpus_1.iew.wb_count           200612327                       # cumulative count of insts written-back
system.switch_cpus_1.iew.wb_producers       131404781                       # num instructions producing a value
system.switch_cpus_1.iew.wb_consumers       136796193                       # num instructions consuming a value
system.switch_cpus_1.iew.wb_rate             1.363104                       # insts written-back per cycle
system.switch_cpus_1.iew.wb_fanout           0.960588                       # average fanout of values written-back
system.switch_cpus_1.commit.commitSquashedInsts      1060245                       # The number of squashed insts skipped by commit
system.switch_cpus_1.commit.branchMispredicts         1459                       # The number of times a branch was mispredicted
system.switch_cpus_1.commit.committed_per_cycle::samples    147026341                       # Number of insts commited each cycle
system.switch_cpus_1.commit.committed_per_cycle::mean     1.360301                       # Number of insts commited each cycle
system.switch_cpus_1.commit.committed_per_cycle::stdev     2.753468                       # Number of insts commited each cycle
system.switch_cpus_1.commit.committed_per_cycle::underflows            0      0.00%      0.00% # Number of insts commited each cycle
system.switch_cpus_1.commit.committed_per_cycle::0    112573756     76.57%     76.57% # Number of insts commited each cycle
system.switch_cpus_1.commit.committed_per_cycle::1      2871028      1.95%     78.52% # Number of insts commited each cycle
system.switch_cpus_1.commit.committed_per_cycle::2      3110858      2.12%     80.64% # Number of insts commited each cycle
system.switch_cpus_1.commit.committed_per_cycle::3      2403897      1.64%     82.27% # Number of insts commited each cycle
system.switch_cpus_1.commit.committed_per_cycle::4      2970851      2.02%     84.29% # Number of insts commited each cycle
system.switch_cpus_1.commit.committed_per_cycle::5      2467195      1.68%     85.97% # Number of insts commited each cycle
system.switch_cpus_1.commit.committed_per_cycle::6      1828598      1.24%     87.21% # Number of insts commited each cycle
system.switch_cpus_1.commit.committed_per_cycle::7      1896642      1.29%     88.50% # Number of insts commited each cycle
system.switch_cpus_1.commit.committed_per_cycle::8     16903516     11.50%    100.00% # Number of insts commited each cycle
system.switch_cpus_1.commit.committed_per_cycle::overflows            0      0.00%    100.00% # Number of insts commited each cycle
system.switch_cpus_1.commit.committed_per_cycle::min_value            0                       # Number of insts commited each cycle
system.switch_cpus_1.commit.committed_per_cycle::max_value            8                       # Number of insts commited each cycle
system.switch_cpus_1.commit.committed_per_cycle::total    147026341                       # Number of insts commited each cycle
system.switch_cpus_1.commit.committedInsts    200000024                       # Number of instructions committed
system.switch_cpus_1.commit.committedOps    200000024                       # Number of ops (including micro ops) committed
system.switch_cpus_1.commit.swp_count               0                       # Number of s/w prefetches committed
system.switch_cpus_1.commit.refs            120088640                       # Number of memory references committed
system.switch_cpus_1.commit.loads            82133897                       # Number of loads committed
system.switch_cpus_1.commit.membars                 0                       # Number of memory barriers committed
system.switch_cpus_1.commit.branches           167612                       # Number of branches committed
system.switch_cpus_1.commit.fp_insts        172405126                       # Number of committed floating point instructions.
system.switch_cpus_1.commit.int_insts       135398704                       # Number of committed integer instructions.
system.switch_cpus_1.commit.function_calls            0                       # Number of function calls committed.
system.switch_cpus_1.commit.op_class_0::No_OpClass           18      0.00%      0.00% # Class of committed instruction
system.switch_cpus_1.commit.op_class_0::IntAlu     15310537      7.66%      7.66% # Class of committed instruction
system.switch_cpus_1.commit.op_class_0::IntMult          186      0.00%      7.66% # Class of committed instruction
system.switch_cpus_1.commit.op_class_0::IntDiv            0      0.00%      7.66% # Class of committed instruction
system.switch_cpus_1.commit.op_class_0::FloatAdd     36073856     18.04%     25.69% # Class of committed instruction
system.switch_cpus_1.commit.op_class_0::FloatCmp            0      0.00%     25.69% # Class of committed instruction
system.switch_cpus_1.commit.op_class_0::FloatCvt            0      0.00%     25.69% # Class of committed instruction
system.switch_cpus_1.commit.op_class_0::FloatMult     28449010     14.22%     39.92% # Class of committed instruction
system.switch_cpus_1.commit.op_class_0::FloatMultAcc            0      0.00%     39.92% # Class of committed instruction
system.switch_cpus_1.commit.op_class_0::FloatDiv        77777      0.04%     39.96% # Class of committed instruction
system.switch_cpus_1.commit.op_class_0::FloatMisc            0      0.00%     39.96% # Class of committed instruction
system.switch_cpus_1.commit.op_class_0::FloatSqrt            0      0.00%     39.96% # Class of committed instruction
system.switch_cpus_1.commit.op_class_0::SimdAdd            0      0.00%     39.96% # Class of committed instruction
system.switch_cpus_1.commit.op_class_0::SimdAddAcc            0      0.00%     39.96% # Class of committed instruction
system.switch_cpus_1.commit.op_class_0::SimdAlu            0      0.00%     39.96% # Class of committed instruction
system.switch_cpus_1.commit.op_class_0::SimdCmp            0      0.00%     39.96% # Class of committed instruction
system.switch_cpus_1.commit.op_class_0::SimdCvt            0      0.00%     39.96% # Class of committed instruction
system.switch_cpus_1.commit.op_class_0::SimdMisc            0      0.00%     39.96% # Class of committed instruction
system.switch_cpus_1.commit.op_class_0::SimdMult            0      0.00%     39.96% # Class of committed instruction
system.switch_cpus_1.commit.op_class_0::SimdMultAcc            0      0.00%     39.96% # Class of committed instruction
system.switch_cpus_1.commit.op_class_0::SimdShift            0      0.00%     39.96% # Class of committed instruction
system.switch_cpus_1.commit.op_class_0::SimdShiftAcc            0      0.00%     39.96% # Class of committed instruction
system.switch_cpus_1.commit.op_class_0::SimdSqrt            0      0.00%     39.96% # Class of committed instruction
system.switch_cpus_1.commit.op_class_0::SimdFloatAdd            0      0.00%     39.96% # Class of committed instruction
system.switch_cpus_1.commit.op_class_0::SimdFloatAlu            0      0.00%     39.96% # Class of committed instruction
system.switch_cpus_1.commit.op_class_0::SimdFloatCmp            0      0.00%     39.96% # Class of committed instruction
system.switch_cpus_1.commit.op_class_0::SimdFloatCvt            0      0.00%     39.96% # Class of committed instruction
system.switch_cpus_1.commit.op_class_0::SimdFloatDiv            0      0.00%     39.96% # Class of committed instruction
system.switch_cpus_1.commit.op_class_0::SimdFloatMisc            0      0.00%     39.96% # Class of committed instruction
system.switch_cpus_1.commit.op_class_0::SimdFloatMult            0      0.00%     39.96% # Class of committed instruction
system.switch_cpus_1.commit.op_class_0::SimdFloatMultAcc            0      0.00%     39.96% # Class of committed instruction
system.switch_cpus_1.commit.op_class_0::SimdFloatSqrt            0      0.00%     39.96% # Class of committed instruction
system.switch_cpus_1.commit.op_class_0::MemRead      8202704      4.10%     44.06% # Class of committed instruction
system.switch_cpus_1.commit.op_class_0::MemWrite      4081453      2.04%     46.10% # Class of committed instruction
system.switch_cpus_1.commit.op_class_0::FloatMemRead     73931193     36.97%     83.06% # Class of committed instruction
system.switch_cpus_1.commit.op_class_0::FloatMemWrite     33873290     16.94%    100.00% # Class of committed instruction
system.switch_cpus_1.commit.op_class_0::IprAccess            0      0.00%    100.00% # Class of committed instruction
system.switch_cpus_1.commit.op_class_0::InstPrefetch            0      0.00%    100.00% # Class of committed instruction
system.switch_cpus_1.commit.op_class_0::total    200000024                       # Class of committed instruction
system.switch_cpus_1.commit.bw_lim_events     16903516                       # number cycles where commit BW limit reached
system.switch_cpus_1.rob.rob_reads          331105094                       # The number of ROB reads
system.switch_cpus_1.rob.rob_writes         402267857                       # The number of ROB writes
system.switch_cpus_1.timesIdled                     4                       # Number of times that the entire CPU went into an idle state and unscheduled itself
system.switch_cpus_1.idleCycles                   681                       # Total number of cycles that the CPU has spent unscheduled due to idling
system.switch_cpus_1.committedInsts         200000006                       # Number of Instructions Simulated
system.switch_cpus_1.committedOps           200000006                       # Number of Ops (including micro ops) Simulated
system.switch_cpus_1.cpi                     0.735866                       # CPI: Cycles Per Instruction
system.switch_cpus_1.cpi_total               0.735866                       # CPI: Total CPI of All Threads
system.switch_cpus_1.ipc                     1.358943                       # IPC: Instructions Per Cycle
system.switch_cpus_1.ipc_total               1.358943                       # IPC: Total IPC of All Threads
system.switch_cpus_1.int_regfile_reads      145481012                       # number of integer regfile reads
system.switch_cpus_1.int_regfile_writes      23578697                       # number of integer regfile writes
system.switch_cpus_1.fp_regfile_reads       163400570                       # number of floating regfile reads
system.switch_cpus_1.fp_regfile_writes      138857165                       # number of floating regfile writes
system.tol3bus.snoop_filter.tot_requests      7960307                       # Total number of requests made to the snoop filter.
system.tol3bus.snoop_filter.hit_single_requests      3978212                       # Number of requests hitting in the snoop filter with a single holder of the requested data.
system.tol3bus.snoop_filter.hit_multi_requests            0                       # Number of requests hitting in the snoop filter with multiple (>1) holders of the requested data.
system.tol3bus.snoop_filter.tot_snoops         176719                       # Total number of snoops made to the snoop filter.
system.tol3bus.snoop_filter.hit_single_snoops       176719                       # Number of snoops hitting in the snoop filter with a single holder of the requested data.
system.tol3bus.snoop_filter.hit_multi_snoops            0                       # Number of snoops hitting in the snoop filter with multiple (>1) holders of the requested data.
system.tol3bus.pwrStateResidencyTicks::UNDEFINED 34879921768395                       # Cumulative time (in ticks) in various power states
system.tol3bus.trans_dist::ReadResp           2827253                       # Transaction distribution
system.tol3bus.trans_dist::WritebackDirty      2582709                       # Transaction distribution
system.tol3bus.trans_dist::CleanEvict         4565193                       # Transaction distribution
system.tol3bus.trans_dist::ReadExReq          1154842                       # Transaction distribution
system.tol3bus.trans_dist::ReadExResp         1154842                       # Transaction distribution
system.tol3bus.trans_dist::ReadSharedReq      2827253                       # Transaction distribution
system.tol3bus.pkt_count_system.cpu.l2.mem_side::system.l3.cpu_side     11942402                       # Packet count per connected master and slave (bytes)
system.tol3bus.pkt_size_system.cpu.l2.mem_side::system.l3.cpu_side    350155328                       # Cumulative packet size per connected master and slave (bytes)
system.tol3bus.snoops                         3169690                       # Total snoops (count)
system.tol3bus.snoopTraffic                  69992128                       # Total snoop traffic (bytes)
system.tol3bus.snoop_fanout::samples          7151785                       # Request fanout histogram
system.tol3bus.snoop_fanout::mean            0.024710                       # Request fanout histogram
system.tol3bus.snoop_fanout::stdev           0.155239                       # Request fanout histogram
system.tol3bus.snoop_fanout::underflows             0      0.00%      0.00% # Request fanout histogram
system.tol3bus.snoop_fanout::0                6975066     97.53%     97.53% # Request fanout histogram
system.tol3bus.snoop_fanout::1                 176719      2.47%    100.00% # Request fanout histogram
system.tol3bus.snoop_fanout::overflows              0      0.00%    100.00% # Request fanout histogram
system.tol3bus.snoop_fanout::min_value              0                       # Request fanout histogram
system.tol3bus.snoop_fanout::max_value              1                       # Request fanout histogram
system.tol3bus.snoop_fanout::total            7151785                       # Request fanout histogram
system.tol3bus.reqLayer0.occupancy         3146646537                       # Layer occupancy (ticks)
system.tol3bus.reqLayer0.utilization              0.2                       # Layer utilization (%)
system.tol3bus.respLayer0.occupancy        2652075270                       # Layer occupancy (ticks)
system.tol3bus.respLayer0.utilization             0.2                       # Layer utilization (%)

---------- End Simulation Statistics   ----------
