
---------- Begin Simulation Statistics ----------
sim_seconds                                  0.967091                       # Number of seconds simulated
sim_ticks                                967091057550                       # Number of ticks simulated
final_tick                               267369721189452                       # Number of ticks from beginning of simulation (restored from checkpoints and never reset)
sim_freq                                 1000000000000                       # Frequency of simulated ticks
host_inst_rate                                 570743                       # Simulator instruction rate (inst/s)
host_op_rate                                   570743                       # Simulator op (including micro ops) rate (op/s)
host_tick_rate                              367973627                       # Simulator tick rate (ticks/s)
host_mem_usage                                2551556                       # Number of bytes of host memory used
host_seconds                                  2628.15                       # Real time elapsed on the host
sim_insts                                  1500000008                       # Number of instructions simulated
sim_ops                                    1500000008                       # Number of ops (including micro ops) simulated
system.voltage_domain.voltage                       1                       # Voltage in Volts
system.clk_domain.clock                          1000                       # Clock period in ticks
system.mem_ctrls0.pwrStateResidencyTicks::UNDEFINED 267369721189452                       # Cumulative time (in ticks) in various power states
system.mem_ctrls0.bytes_read::cpu.inst            128                       # Number of bytes read from this memory
system.mem_ctrls0.bytes_read::cpu.data             64                       # Number of bytes read from this memory
system.mem_ctrls0.bytes_read::switch_cpus.inst         7616                       # Number of bytes read from this memory
system.mem_ctrls0.bytes_read::switch_cpus.data       989696                       # Number of bytes read from this memory
system.mem_ctrls0.bytes_read::switch_cpus_1.inst          832                       # Number of bytes read from this memory
system.mem_ctrls0.bytes_read::switch_cpus_1.data       563648                       # Number of bytes read from this memory
system.mem_ctrls0.bytes_read::total           1561984                       # Number of bytes read from this memory
system.mem_ctrls0.bytes_inst_read::cpu.inst          128                       # Number of instructions bytes read from this memory
system.mem_ctrls0.bytes_inst_read::switch_cpus.inst         7616                       # Number of instructions bytes read from this memory
system.mem_ctrls0.bytes_inst_read::switch_cpus_1.inst          832                       # Number of instructions bytes read from this memory
system.mem_ctrls0.bytes_inst_read::total         8576                       # Number of instructions bytes read from this memory
system.mem_ctrls0.num_reads::cpu.inst               2                       # Number of read requests responded to by this memory
system.mem_ctrls0.num_reads::cpu.data               1                       # Number of read requests responded to by this memory
system.mem_ctrls0.num_reads::switch_cpus.inst          119                       # Number of read requests responded to by this memory
system.mem_ctrls0.num_reads::switch_cpus.data        15464                       # Number of read requests responded to by this memory
system.mem_ctrls0.num_reads::switch_cpus_1.inst           13                       # Number of read requests responded to by this memory
system.mem_ctrls0.num_reads::switch_cpus_1.data         8807                       # Number of read requests responded to by this memory
system.mem_ctrls0.num_reads::total              24406                       # Number of read requests responded to by this memory
system.mem_ctrls0.bw_read::cpu.inst               132                       # Total read bandwidth from this memory (bytes/s)
system.mem_ctrls0.bw_read::cpu.data                66                       # Total read bandwidth from this memory (bytes/s)
system.mem_ctrls0.bw_read::switch_cpus.inst         7875                       # Total read bandwidth from this memory (bytes/s)
system.mem_ctrls0.bw_read::switch_cpus.data      1023374                       # Total read bandwidth from this memory (bytes/s)
system.mem_ctrls0.bw_read::switch_cpus_1.inst          860                       # Total read bandwidth from this memory (bytes/s)
system.mem_ctrls0.bw_read::switch_cpus_1.data       582828                       # Total read bandwidth from this memory (bytes/s)
system.mem_ctrls0.bw_read::total              1615136                       # Total read bandwidth from this memory (bytes/s)
system.mem_ctrls0.bw_inst_read::cpu.inst          132                       # Instruction read bandwidth from this memory (bytes/s)
system.mem_ctrls0.bw_inst_read::switch_cpus.inst         7875                       # Instruction read bandwidth from this memory (bytes/s)
system.mem_ctrls0.bw_inst_read::switch_cpus_1.inst          860                       # Instruction read bandwidth from this memory (bytes/s)
system.mem_ctrls0.bw_inst_read::total            8868                       # Instruction read bandwidth from this memory (bytes/s)
system.mem_ctrls0.bw_total::cpu.inst              132                       # Total bandwidth to/from this memory (bytes/s)
system.mem_ctrls0.bw_total::cpu.data               66                       # Total bandwidth to/from this memory (bytes/s)
system.mem_ctrls0.bw_total::switch_cpus.inst         7875                       # Total bandwidth to/from this memory (bytes/s)
system.mem_ctrls0.bw_total::switch_cpus.data      1023374                       # Total bandwidth to/from this memory (bytes/s)
system.mem_ctrls0.bw_total::switch_cpus_1.inst          860                       # Total bandwidth to/from this memory (bytes/s)
system.mem_ctrls0.bw_total::switch_cpus_1.data       582828                       # Total bandwidth to/from this memory (bytes/s)
system.mem_ctrls0.bw_total::total             1615136                       # Total bandwidth to/from this memory (bytes/s)
system.mem_ctrls0.readReqs                      24406                       # Number of read requests accepted
system.mem_ctrls0.writeReqs                         0                       # Number of write requests accepted
system.mem_ctrls0.readBursts                    24406                       # Number of DRAM read bursts, including those serviced by the write queue
system.mem_ctrls0.writeBursts                       0                       # Number of DRAM write bursts, including those merged in the write queue
system.mem_ctrls0.bytesReadDRAM               1561984                       # Total number of bytes read from DRAM
system.mem_ctrls0.bytesReadWrQ                      0                       # Total number of bytes read from write queue
system.mem_ctrls0.bytesWritten                      0                       # Total number of bytes written to DRAM
system.mem_ctrls0.bytesReadSys                1561984                       # Total read bytes from the system interface side
system.mem_ctrls0.bytesWrittenSys                   0                       # Total written bytes from the system interface side
system.mem_ctrls0.servicedByWrQ                     0                       # Number of DRAM read bursts serviced by the write queue
system.mem_ctrls0.mergedWrBursts                    0                       # Number of DRAM write bursts merged with an existing one
system.mem_ctrls0.neitherReadNorWriteReqs            0                       # Number of requests that are neither read nor write
system.mem_ctrls0.perBankRdBursts::0             1536                       # Per bank write bursts
system.mem_ctrls0.perBankRdBursts::1             1517                       # Per bank write bursts
system.mem_ctrls0.perBankRdBursts::2             1412                       # Per bank write bursts
system.mem_ctrls0.perBankRdBursts::3             1412                       # Per bank write bursts
system.mem_ctrls0.perBankRdBursts::4             1408                       # Per bank write bursts
system.mem_ctrls0.perBankRdBursts::5             1408                       # Per bank write bursts
system.mem_ctrls0.perBankRdBursts::6             1437                       # Per bank write bursts
system.mem_ctrls0.perBankRdBursts::7             1528                       # Per bank write bursts
system.mem_ctrls0.perBankRdBursts::8             1586                       # Per bank write bursts
system.mem_ctrls0.perBankRdBursts::9             1661                       # Per bank write bursts
system.mem_ctrls0.perBankRdBursts::10            1572                       # Per bank write bursts
system.mem_ctrls0.perBankRdBursts::11            1550                       # Per bank write bursts
system.mem_ctrls0.perBankRdBursts::12            1615                       # Per bank write bursts
system.mem_ctrls0.perBankRdBursts::13            1542                       # Per bank write bursts
system.mem_ctrls0.perBankRdBursts::14            1664                       # Per bank write bursts
system.mem_ctrls0.perBankRdBursts::15            1558                       # Per bank write bursts
system.mem_ctrls0.perBankWrBursts::0                0                       # Per bank write bursts
system.mem_ctrls0.perBankWrBursts::1                0                       # Per bank write bursts
system.mem_ctrls0.perBankWrBursts::2                0                       # Per bank write bursts
system.mem_ctrls0.perBankWrBursts::3                0                       # Per bank write bursts
system.mem_ctrls0.perBankWrBursts::4                0                       # Per bank write bursts
system.mem_ctrls0.perBankWrBursts::5                0                       # Per bank write bursts
system.mem_ctrls0.perBankWrBursts::6                0                       # Per bank write bursts
system.mem_ctrls0.perBankWrBursts::7                0                       # Per bank write bursts
system.mem_ctrls0.perBankWrBursts::8                0                       # Per bank write bursts
system.mem_ctrls0.perBankWrBursts::9                0                       # Per bank write bursts
system.mem_ctrls0.perBankWrBursts::10               0                       # Per bank write bursts
system.mem_ctrls0.perBankWrBursts::11               0                       # Per bank write bursts
system.mem_ctrls0.perBankWrBursts::12               0                       # Per bank write bursts
system.mem_ctrls0.perBankWrBursts::13               0                       # Per bank write bursts
system.mem_ctrls0.perBankWrBursts::14               0                       # Per bank write bursts
system.mem_ctrls0.perBankWrBursts::15               0                       # Per bank write bursts
system.mem_ctrls0.numRdRetry                        0                       # Number of times read queue was full causing retry
system.mem_ctrls0.numWrRetry                        0                       # Number of times write queue was full causing retry
system.mem_ctrls0.totGap                 966842885304                       # Total gap between requests
system.mem_ctrls0.readPktSize::0                    0                       # Read request sizes (log2)
system.mem_ctrls0.readPktSize::1                    0                       # Read request sizes (log2)
system.mem_ctrls0.readPktSize::2                    0                       # Read request sizes (log2)
system.mem_ctrls0.readPktSize::3                    0                       # Read request sizes (log2)
system.mem_ctrls0.readPktSize::4                    0                       # Read request sizes (log2)
system.mem_ctrls0.readPktSize::5                    0                       # Read request sizes (log2)
system.mem_ctrls0.readPktSize::6                24406                       # Read request sizes (log2)
system.mem_ctrls0.writePktSize::0                   0                       # Write request sizes (log2)
system.mem_ctrls0.writePktSize::1                   0                       # Write request sizes (log2)
system.mem_ctrls0.writePktSize::2                   0                       # Write request sizes (log2)
system.mem_ctrls0.writePktSize::3                   0                       # Write request sizes (log2)
system.mem_ctrls0.writePktSize::4                   0                       # Write request sizes (log2)
system.mem_ctrls0.writePktSize::5                   0                       # Write request sizes (log2)
system.mem_ctrls0.writePktSize::6                   0                       # Write request sizes (log2)
system.mem_ctrls0.rdQLenPdf::0                  23017                       # What read queue length does an incoming req see
system.mem_ctrls0.rdQLenPdf::1                   1389                       # What read queue length does an incoming req see
system.mem_ctrls0.rdQLenPdf::2                      0                       # What read queue length does an incoming req see
system.mem_ctrls0.rdQLenPdf::3                      0                       # What read queue length does an incoming req see
system.mem_ctrls0.rdQLenPdf::4                      0                       # What read queue length does an incoming req see
system.mem_ctrls0.rdQLenPdf::5                      0                       # What read queue length does an incoming req see
system.mem_ctrls0.rdQLenPdf::6                      0                       # What read queue length does an incoming req see
system.mem_ctrls0.rdQLenPdf::7                      0                       # What read queue length does an incoming req see
system.mem_ctrls0.rdQLenPdf::8                      0                       # What read queue length does an incoming req see
system.mem_ctrls0.rdQLenPdf::9                      0                       # What read queue length does an incoming req see
system.mem_ctrls0.rdQLenPdf::10                     0                       # What read queue length does an incoming req see
system.mem_ctrls0.rdQLenPdf::11                     0                       # What read queue length does an incoming req see
system.mem_ctrls0.rdQLenPdf::12                     0                       # What read queue length does an incoming req see
system.mem_ctrls0.rdQLenPdf::13                     0                       # What read queue length does an incoming req see
system.mem_ctrls0.rdQLenPdf::14                     0                       # What read queue length does an incoming req see
system.mem_ctrls0.rdQLenPdf::15                     0                       # What read queue length does an incoming req see
system.mem_ctrls0.rdQLenPdf::16                     0                       # What read queue length does an incoming req see
system.mem_ctrls0.rdQLenPdf::17                     0                       # What read queue length does an incoming req see
system.mem_ctrls0.rdQLenPdf::18                     0                       # What read queue length does an incoming req see
system.mem_ctrls0.rdQLenPdf::19                     0                       # What read queue length does an incoming req see
system.mem_ctrls0.rdQLenPdf::20                     0                       # What read queue length does an incoming req see
system.mem_ctrls0.rdQLenPdf::21                     0                       # What read queue length does an incoming req see
system.mem_ctrls0.rdQLenPdf::22                     0                       # What read queue length does an incoming req see
system.mem_ctrls0.rdQLenPdf::23                     0                       # What read queue length does an incoming req see
system.mem_ctrls0.rdQLenPdf::24                     0                       # What read queue length does an incoming req see
system.mem_ctrls0.rdQLenPdf::25                     0                       # What read queue length does an incoming req see
system.mem_ctrls0.rdQLenPdf::26                     0                       # What read queue length does an incoming req see
system.mem_ctrls0.rdQLenPdf::27                     0                       # What read queue length does an incoming req see
system.mem_ctrls0.rdQLenPdf::28                     0                       # What read queue length does an incoming req see
system.mem_ctrls0.rdQLenPdf::29                     0                       # What read queue length does an incoming req see
system.mem_ctrls0.rdQLenPdf::30                     0                       # What read queue length does an incoming req see
system.mem_ctrls0.rdQLenPdf::31                     0                       # What read queue length does an incoming req see
system.mem_ctrls0.wrQLenPdf::0                      0                       # What write queue length does an incoming req see
system.mem_ctrls0.wrQLenPdf::1                      0                       # What write queue length does an incoming req see
system.mem_ctrls0.wrQLenPdf::2                      0                       # What write queue length does an incoming req see
system.mem_ctrls0.wrQLenPdf::3                      0                       # What write queue length does an incoming req see
system.mem_ctrls0.wrQLenPdf::4                      0                       # What write queue length does an incoming req see
system.mem_ctrls0.wrQLenPdf::5                      0                       # What write queue length does an incoming req see
system.mem_ctrls0.wrQLenPdf::6                      0                       # What write queue length does an incoming req see
system.mem_ctrls0.wrQLenPdf::7                      0                       # What write queue length does an incoming req see
system.mem_ctrls0.wrQLenPdf::8                      0                       # What write queue length does an incoming req see
system.mem_ctrls0.wrQLenPdf::9                      0                       # What write queue length does an incoming req see
system.mem_ctrls0.wrQLenPdf::10                     0                       # What write queue length does an incoming req see
system.mem_ctrls0.wrQLenPdf::11                     0                       # What write queue length does an incoming req see
system.mem_ctrls0.wrQLenPdf::12                     0                       # What write queue length does an incoming req see
system.mem_ctrls0.wrQLenPdf::13                     0                       # What write queue length does an incoming req see
system.mem_ctrls0.wrQLenPdf::14                     0                       # What write queue length does an incoming req see
system.mem_ctrls0.wrQLenPdf::15                     0                       # What write queue length does an incoming req see
system.mem_ctrls0.wrQLenPdf::16                     0                       # What write queue length does an incoming req see
system.mem_ctrls0.wrQLenPdf::17                     0                       # What write queue length does an incoming req see
system.mem_ctrls0.wrQLenPdf::18                     0                       # What write queue length does an incoming req see
system.mem_ctrls0.wrQLenPdf::19                     0                       # What write queue length does an incoming req see
system.mem_ctrls0.wrQLenPdf::20                     0                       # What write queue length does an incoming req see
system.mem_ctrls0.wrQLenPdf::21                     0                       # What write queue length does an incoming req see
system.mem_ctrls0.wrQLenPdf::22                     0                       # What write queue length does an incoming req see
system.mem_ctrls0.wrQLenPdf::23                     0                       # What write queue length does an incoming req see
system.mem_ctrls0.wrQLenPdf::24                     0                       # What write queue length does an incoming req see
system.mem_ctrls0.wrQLenPdf::25                     0                       # What write queue length does an incoming req see
system.mem_ctrls0.wrQLenPdf::26                     0                       # What write queue length does an incoming req see
system.mem_ctrls0.wrQLenPdf::27                     0                       # What write queue length does an incoming req see
system.mem_ctrls0.wrQLenPdf::28                     0                       # What write queue length does an incoming req see
system.mem_ctrls0.wrQLenPdf::29                     0                       # What write queue length does an incoming req see
system.mem_ctrls0.wrQLenPdf::30                     0                       # What write queue length does an incoming req see
system.mem_ctrls0.wrQLenPdf::31                     0                       # What write queue length does an incoming req see
system.mem_ctrls0.wrQLenPdf::32                     0                       # What write queue length does an incoming req see
system.mem_ctrls0.wrQLenPdf::33                     0                       # What write queue length does an incoming req see
system.mem_ctrls0.wrQLenPdf::34                     0                       # What write queue length does an incoming req see
system.mem_ctrls0.wrQLenPdf::35                     0                       # What write queue length does an incoming req see
system.mem_ctrls0.wrQLenPdf::36                     0                       # What write queue length does an incoming req see
system.mem_ctrls0.wrQLenPdf::37                     0                       # What write queue length does an incoming req see
system.mem_ctrls0.wrQLenPdf::38                     0                       # What write queue length does an incoming req see
system.mem_ctrls0.wrQLenPdf::39                     0                       # What write queue length does an incoming req see
system.mem_ctrls0.wrQLenPdf::40                     0                       # What write queue length does an incoming req see
system.mem_ctrls0.wrQLenPdf::41                     0                       # What write queue length does an incoming req see
system.mem_ctrls0.wrQLenPdf::42                     0                       # What write queue length does an incoming req see
system.mem_ctrls0.wrQLenPdf::43                     0                       # What write queue length does an incoming req see
system.mem_ctrls0.wrQLenPdf::44                     0                       # What write queue length does an incoming req see
system.mem_ctrls0.wrQLenPdf::45                     0                       # What write queue length does an incoming req see
system.mem_ctrls0.wrQLenPdf::46                     0                       # What write queue length does an incoming req see
system.mem_ctrls0.wrQLenPdf::47                     0                       # What write queue length does an incoming req see
system.mem_ctrls0.wrQLenPdf::48                     0                       # What write queue length does an incoming req see
system.mem_ctrls0.wrQLenPdf::49                     0                       # What write queue length does an incoming req see
system.mem_ctrls0.wrQLenPdf::50                     0                       # What write queue length does an incoming req see
system.mem_ctrls0.wrQLenPdf::51                     0                       # What write queue length does an incoming req see
system.mem_ctrls0.wrQLenPdf::52                     0                       # What write queue length does an incoming req see
system.mem_ctrls0.wrQLenPdf::53                     0                       # What write queue length does an incoming req see
system.mem_ctrls0.wrQLenPdf::54                     0                       # What write queue length does an incoming req see
system.mem_ctrls0.wrQLenPdf::55                     0                       # What write queue length does an incoming req see
system.mem_ctrls0.wrQLenPdf::56                     0                       # What write queue length does an incoming req see
system.mem_ctrls0.wrQLenPdf::57                     0                       # What write queue length does an incoming req see
system.mem_ctrls0.wrQLenPdf::58                     0                       # What write queue length does an incoming req see
system.mem_ctrls0.wrQLenPdf::59                     0                       # What write queue length does an incoming req see
system.mem_ctrls0.wrQLenPdf::60                     0                       # What write queue length does an incoming req see
system.mem_ctrls0.wrQLenPdf::61                     0                       # What write queue length does an incoming req see
system.mem_ctrls0.wrQLenPdf::62                     0                       # What write queue length does an incoming req see
system.mem_ctrls0.wrQLenPdf::63                     0                       # What write queue length does an incoming req see
system.mem_ctrls0.bytesPerActivate::samples         5578                       # Bytes accessed per row activation
system.mem_ctrls0.bytesPerActivate::mean   280.025816                       # Bytes accessed per row activation
system.mem_ctrls0.bytesPerActivate::gmean   204.180043                       # Bytes accessed per row activation
system.mem_ctrls0.bytesPerActivate::stdev   226.484086                       # Bytes accessed per row activation
system.mem_ctrls0.bytesPerActivate::0-127         1344     24.09%     24.09% # Bytes accessed per row activation
system.mem_ctrls0.bytesPerActivate::128-255         1243     22.28%     46.38% # Bytes accessed per row activation
system.mem_ctrls0.bytesPerActivate::256-383          868     15.56%     61.94% # Bytes accessed per row activation
system.mem_ctrls0.bytesPerActivate::384-511         1706     30.58%     92.52% # Bytes accessed per row activation
system.mem_ctrls0.bytesPerActivate::512-639           80      1.43%     93.96% # Bytes accessed per row activation
system.mem_ctrls0.bytesPerActivate::640-767           24      0.43%     94.39% # Bytes accessed per row activation
system.mem_ctrls0.bytesPerActivate::768-895           21      0.38%     94.77% # Bytes accessed per row activation
system.mem_ctrls0.bytesPerActivate::896-1023           20      0.36%     95.12% # Bytes accessed per row activation
system.mem_ctrls0.bytesPerActivate::1024-1151          272      4.88%    100.00% # Bytes accessed per row activation
system.mem_ctrls0.bytesPerActivate::total         5578                       # Bytes accessed per row activation
system.mem_ctrls0.totQLat                  1035031237                       # Total ticks spent queuing
system.mem_ctrls0.totMemAccLat             1492643737                       # Total ticks spent from burst creation until serviced by the DRAM
system.mem_ctrls0.totBusLat                 122030000                       # Total ticks spent in databus transfers
system.mem_ctrls0.avgQLat                    42408.88                       # Average queueing delay per DRAM burst
system.mem_ctrls0.avgBusLat                   5000.00                       # Average bus latency per DRAM burst
system.mem_ctrls0.avgMemAccLat               61158.88                       # Average memory access latency per DRAM burst
system.mem_ctrls0.avgRdBW                        1.62                       # Average DRAM read bandwidth in MiByte/s
system.mem_ctrls0.avgWrBW                        0.00                       # Average achieved write bandwidth in MiByte/s
system.mem_ctrls0.avgRdBWSys                     1.62                       # Average system read bandwidth in MiByte/s
system.mem_ctrls0.avgWrBWSys                     0.00                       # Average system write bandwidth in MiByte/s
system.mem_ctrls0.peakBW                     12800.00                       # Theoretical peak bandwidth in MiByte/s
system.mem_ctrls0.busUtil                        0.01                       # Data bus utilization in percentage
system.mem_ctrls0.busUtilRead                    0.01                       # Data bus utilization in percentage for reads
system.mem_ctrls0.busUtilWrite                   0.00                       # Data bus utilization in percentage for writes
system.mem_ctrls0.avgRdQLen                      1.03                       # Average read queue length when enqueuing
system.mem_ctrls0.avgWrQLen                      0.00                       # Average write queue length when enqueuing
system.mem_ctrls0.readRowHits                   18828                       # Number of row buffer hits during reads
system.mem_ctrls0.writeRowHits                      0                       # Number of row buffer hits during writes
system.mem_ctrls0.readRowHitRate                77.14                       # Row buffer hit rate for reads
system.mem_ctrls0.writeRowHitRate                 nan                       # Row buffer hit rate for writes
system.mem_ctrls0.avgGap                  39614967.03                       # Average gap between requests
system.mem_ctrls0.pageHitRate                   77.14                       # Row buffer hit rate, read and write combined
system.mem_ctrls0_0.actEnergy                19427940                       # Energy for activate commands per rank (pJ)
system.mem_ctrls0_0.preEnergy                10326195                       # Energy for precharge commands per rank (pJ)
system.mem_ctrls0_0.readEnergy               83238120                       # Energy for read commands per rank (pJ)
system.mem_ctrls0_0.writeEnergy                     0                       # Energy for write commands per rank (pJ)
system.mem_ctrls0_0.refreshEnergy        1668747600.000000                       # Energy for refresh commands per rank (pJ)
system.mem_ctrls0_0.actBackEnergy           450809580                       # Energy for active background per rank (pJ)
system.mem_ctrls0_0.preBackEnergy            98628480                       # Energy for precharge background per rank (pJ)
system.mem_ctrls0_0.actPowerDownEnergy     4648918290                       # Energy for active power-down per rank (pJ)
system.mem_ctrls0_0.prePowerDownEnergy     2012386080                       # Energy for precharge power-down per rank (pJ)
system.mem_ctrls0_0.selfRefreshEnergy    228438030000                       # Energy for self refresh per rank (pJ)
system.mem_ctrls0_0.totalEnergy          237430512285                       # Total energy per rank (pJ)
system.mem_ctrls0_0.averagePower           245.509986                       # Core power per rank (mW)
system.mem_ctrls0_0.totalIdleTime        965612767985                       # Total Idle time Per DRAM Rank
system.mem_ctrls0_0.memoryStateTime::IDLE    191750509                       # Time in different power states
system.mem_ctrls0_0.memoryStateTime::REF    709602000                       # Time in different power states
system.mem_ctrls0_0.memoryStateTime::SREF 950410026550                       # Time in different power states
system.mem_ctrls0_0.memoryStateTime::PRE_PDN   5240576392                       # Time in different power states
system.mem_ctrls0_0.memoryStateTime::ACT    344193657                       # Time in different power states
system.mem_ctrls0_0.memoryStateTime::ACT_PDN  10194908442                       # Time in different power states
system.mem_ctrls0_1.actEnergy                20398980                       # Energy for activate commands per rank (pJ)
system.mem_ctrls0_1.preEnergy                10842315                       # Energy for precharge commands per rank (pJ)
system.mem_ctrls0_1.readEnergy               91020720                       # Energy for read commands per rank (pJ)
system.mem_ctrls0_1.writeEnergy                     0                       # Energy for write commands per rank (pJ)
system.mem_ctrls0_1.refreshEnergy        1695791760.000000                       # Energy for refresh commands per rank (pJ)
system.mem_ctrls0_1.actBackEnergy           484374600                       # Energy for active background per rank (pJ)
system.mem_ctrls0_1.preBackEnergy            94419360                       # Energy for precharge background per rank (pJ)
system.mem_ctrls0_1.actPowerDownEnergy     4825514550                       # Energy for active power-down per rank (pJ)
system.mem_ctrls0_1.prePowerDownEnergy     1948891680                       # Energy for precharge power-down per rank (pJ)
system.mem_ctrls0_1.selfRefreshEnergy    228374151420                       # Energy for self refresh per rank (pJ)
system.mem_ctrls0_1.totalEnergy          237545405385                       # Total energy per rank (pJ)
system.mem_ctrls0_1.averagePower           245.628789                       # Core power per rank (mW)
system.mem_ctrls0_1.totalIdleTime        964389185204                       # Total Idle time Per DRAM Rank
system.mem_ctrls0_1.memoryStateTime::IDLE    181024477                       # Time in different power states
system.mem_ctrls0_1.memoryStateTime::REF    721084000                       # Time in different power states
system.mem_ctrls0_1.memoryStateTime::SREF 950125433550                       # Time in different power states
system.mem_ctrls0_1.memoryStateTime::PRE_PDN   5075198720                       # Time in different power states
system.mem_ctrls0_1.memoryStateTime::ACT    405957362                       # Time in different power states
system.mem_ctrls0_1.memoryStateTime::ACT_PDN  10582359441                       # Time in different power states
system.mem_ctrls1.pwrStateResidencyTicks::UNDEFINED 267369721189452                       # Cumulative time (in ticks) in various power states
system.mem_ctrls1.bytes_read::cpu.inst             64                       # Number of bytes read from this memory
system.mem_ctrls1.bytes_read::switch_cpus.inst         8192                       # Number of bytes read from this memory
system.mem_ctrls1.bytes_read::switch_cpus.data       989760                       # Number of bytes read from this memory
system.mem_ctrls1.bytes_read::switch_cpus_1.inst         1024                       # Number of bytes read from this memory
system.mem_ctrls1.bytes_read::switch_cpus_1.data       563520                       # Number of bytes read from this memory
system.mem_ctrls1.bytes_read::total           1562560                       # Number of bytes read from this memory
system.mem_ctrls1.bytes_inst_read::cpu.inst           64                       # Number of instructions bytes read from this memory
system.mem_ctrls1.bytes_inst_read::switch_cpus.inst         8192                       # Number of instructions bytes read from this memory
system.mem_ctrls1.bytes_inst_read::switch_cpus_1.inst         1024                       # Number of instructions bytes read from this memory
system.mem_ctrls1.bytes_inst_read::total         9280                       # Number of instructions bytes read from this memory
system.mem_ctrls1.num_reads::cpu.inst               1                       # Number of read requests responded to by this memory
system.mem_ctrls1.num_reads::switch_cpus.inst          128                       # Number of read requests responded to by this memory
system.mem_ctrls1.num_reads::switch_cpus.data        15465                       # Number of read requests responded to by this memory
system.mem_ctrls1.num_reads::switch_cpus_1.inst           16                       # Number of read requests responded to by this memory
system.mem_ctrls1.num_reads::switch_cpus_1.data         8805                       # Number of read requests responded to by this memory
system.mem_ctrls1.num_reads::total              24415                       # Number of read requests responded to by this memory
system.mem_ctrls1.bw_read::cpu.inst                66                       # Total read bandwidth from this memory (bytes/s)
system.mem_ctrls1.bw_read::switch_cpus.inst         8471                       # Total read bandwidth from this memory (bytes/s)
system.mem_ctrls1.bw_read::switch_cpus.data      1023440                       # Total read bandwidth from this memory (bytes/s)
system.mem_ctrls1.bw_read::switch_cpus_1.inst         1059                       # Total read bandwidth from this memory (bytes/s)
system.mem_ctrls1.bw_read::switch_cpus_1.data       582696                       # Total read bandwidth from this memory (bytes/s)
system.mem_ctrls1.bw_read::total              1615732                       # Total read bandwidth from this memory (bytes/s)
system.mem_ctrls1.bw_inst_read::cpu.inst           66                       # Instruction read bandwidth from this memory (bytes/s)
system.mem_ctrls1.bw_inst_read::switch_cpus.inst         8471                       # Instruction read bandwidth from this memory (bytes/s)
system.mem_ctrls1.bw_inst_read::switch_cpus_1.inst         1059                       # Instruction read bandwidth from this memory (bytes/s)
system.mem_ctrls1.bw_inst_read::total            9596                       # Instruction read bandwidth from this memory (bytes/s)
system.mem_ctrls1.bw_total::cpu.inst               66                       # Total bandwidth to/from this memory (bytes/s)
system.mem_ctrls1.bw_total::switch_cpus.inst         8471                       # Total bandwidth to/from this memory (bytes/s)
system.mem_ctrls1.bw_total::switch_cpus.data      1023440                       # Total bandwidth to/from this memory (bytes/s)
system.mem_ctrls1.bw_total::switch_cpus_1.inst         1059                       # Total bandwidth to/from this memory (bytes/s)
system.mem_ctrls1.bw_total::switch_cpus_1.data       582696                       # Total bandwidth to/from this memory (bytes/s)
system.mem_ctrls1.bw_total::total             1615732                       # Total bandwidth to/from this memory (bytes/s)
system.mem_ctrls1.readReqs                      24415                       # Number of read requests accepted
system.mem_ctrls1.writeReqs                         0                       # Number of write requests accepted
system.mem_ctrls1.readBursts                    24415                       # Number of DRAM read bursts, including those serviced by the write queue
system.mem_ctrls1.writeBursts                       0                       # Number of DRAM write bursts, including those merged in the write queue
system.mem_ctrls1.bytesReadDRAM               1562560                       # Total number of bytes read from DRAM
system.mem_ctrls1.bytesReadWrQ                      0                       # Total number of bytes read from write queue
system.mem_ctrls1.bytesWritten                      0                       # Total number of bytes written to DRAM
system.mem_ctrls1.bytesReadSys                1562560                       # Total read bytes from the system interface side
system.mem_ctrls1.bytesWrittenSys                   0                       # Total written bytes from the system interface side
system.mem_ctrls1.servicedByWrQ                     0                       # Number of DRAM read bursts serviced by the write queue
system.mem_ctrls1.mergedWrBursts                    0                       # Number of DRAM write bursts merged with an existing one
system.mem_ctrls1.neitherReadNorWriteReqs            0                       # Number of requests that are neither read nor write
system.mem_ctrls1.perBankRdBursts::0             1536                       # Per bank write bursts
system.mem_ctrls1.perBankRdBursts::1             1519                       # Per bank write bursts
system.mem_ctrls1.perBankRdBursts::2             1410                       # Per bank write bursts
system.mem_ctrls1.perBankRdBursts::3             1414                       # Per bank write bursts
system.mem_ctrls1.perBankRdBursts::4             1408                       # Per bank write bursts
system.mem_ctrls1.perBankRdBursts::5             1408                       # Per bank write bursts
system.mem_ctrls1.perBankRdBursts::6             1440                       # Per bank write bursts
system.mem_ctrls1.perBankRdBursts::7             1529                       # Per bank write bursts
system.mem_ctrls1.perBankRdBursts::8             1591                       # Per bank write bursts
system.mem_ctrls1.perBankRdBursts::9             1654                       # Per bank write bursts
system.mem_ctrls1.perBankRdBursts::10            1577                       # Per bank write bursts
system.mem_ctrls1.perBankRdBursts::11            1550                       # Per bank write bursts
system.mem_ctrls1.perBankRdBursts::12            1614                       # Per bank write bursts
system.mem_ctrls1.perBankRdBursts::13            1543                       # Per bank write bursts
system.mem_ctrls1.perBankRdBursts::14            1664                       # Per bank write bursts
system.mem_ctrls1.perBankRdBursts::15            1558                       # Per bank write bursts
system.mem_ctrls1.perBankWrBursts::0                0                       # Per bank write bursts
system.mem_ctrls1.perBankWrBursts::1                0                       # Per bank write bursts
system.mem_ctrls1.perBankWrBursts::2                0                       # Per bank write bursts
system.mem_ctrls1.perBankWrBursts::3                0                       # Per bank write bursts
system.mem_ctrls1.perBankWrBursts::4                0                       # Per bank write bursts
system.mem_ctrls1.perBankWrBursts::5                0                       # Per bank write bursts
system.mem_ctrls1.perBankWrBursts::6                0                       # Per bank write bursts
system.mem_ctrls1.perBankWrBursts::7                0                       # Per bank write bursts
system.mem_ctrls1.perBankWrBursts::8                0                       # Per bank write bursts
system.mem_ctrls1.perBankWrBursts::9                0                       # Per bank write bursts
system.mem_ctrls1.perBankWrBursts::10               0                       # Per bank write bursts
system.mem_ctrls1.perBankWrBursts::11               0                       # Per bank write bursts
system.mem_ctrls1.perBankWrBursts::12               0                       # Per bank write bursts
system.mem_ctrls1.perBankWrBursts::13               0                       # Per bank write bursts
system.mem_ctrls1.perBankWrBursts::14               0                       # Per bank write bursts
system.mem_ctrls1.perBankWrBursts::15               0                       # Per bank write bursts
system.mem_ctrls1.numRdRetry                        0                       # Number of times read queue was full causing retry
system.mem_ctrls1.numWrRetry                        0                       # Number of times write queue was full causing retry
system.mem_ctrls1.totGap                 966842725464                       # Total gap between requests
system.mem_ctrls1.readPktSize::0                    0                       # Read request sizes (log2)
system.mem_ctrls1.readPktSize::1                    0                       # Read request sizes (log2)
system.mem_ctrls1.readPktSize::2                    0                       # Read request sizes (log2)
system.mem_ctrls1.readPktSize::3                    0                       # Read request sizes (log2)
system.mem_ctrls1.readPktSize::4                    0                       # Read request sizes (log2)
system.mem_ctrls1.readPktSize::5                    0                       # Read request sizes (log2)
system.mem_ctrls1.readPktSize::6                24415                       # Read request sizes (log2)
system.mem_ctrls1.writePktSize::0                   0                       # Write request sizes (log2)
system.mem_ctrls1.writePktSize::1                   0                       # Write request sizes (log2)
system.mem_ctrls1.writePktSize::2                   0                       # Write request sizes (log2)
system.mem_ctrls1.writePktSize::3                   0                       # Write request sizes (log2)
system.mem_ctrls1.writePktSize::4                   0                       # Write request sizes (log2)
system.mem_ctrls1.writePktSize::5                   0                       # Write request sizes (log2)
system.mem_ctrls1.writePktSize::6                   0                       # Write request sizes (log2)
system.mem_ctrls1.rdQLenPdf::0                  23058                       # What read queue length does an incoming req see
system.mem_ctrls1.rdQLenPdf::1                   1357                       # What read queue length does an incoming req see
system.mem_ctrls1.rdQLenPdf::2                      0                       # What read queue length does an incoming req see
system.mem_ctrls1.rdQLenPdf::3                      0                       # What read queue length does an incoming req see
system.mem_ctrls1.rdQLenPdf::4                      0                       # What read queue length does an incoming req see
system.mem_ctrls1.rdQLenPdf::5                      0                       # What read queue length does an incoming req see
system.mem_ctrls1.rdQLenPdf::6                      0                       # What read queue length does an incoming req see
system.mem_ctrls1.rdQLenPdf::7                      0                       # What read queue length does an incoming req see
system.mem_ctrls1.rdQLenPdf::8                      0                       # What read queue length does an incoming req see
system.mem_ctrls1.rdQLenPdf::9                      0                       # What read queue length does an incoming req see
system.mem_ctrls1.rdQLenPdf::10                     0                       # What read queue length does an incoming req see
system.mem_ctrls1.rdQLenPdf::11                     0                       # What read queue length does an incoming req see
system.mem_ctrls1.rdQLenPdf::12                     0                       # What read queue length does an incoming req see
system.mem_ctrls1.rdQLenPdf::13                     0                       # What read queue length does an incoming req see
system.mem_ctrls1.rdQLenPdf::14                     0                       # What read queue length does an incoming req see
system.mem_ctrls1.rdQLenPdf::15                     0                       # What read queue length does an incoming req see
system.mem_ctrls1.rdQLenPdf::16                     0                       # What read queue length does an incoming req see
system.mem_ctrls1.rdQLenPdf::17                     0                       # What read queue length does an incoming req see
system.mem_ctrls1.rdQLenPdf::18                     0                       # What read queue length does an incoming req see
system.mem_ctrls1.rdQLenPdf::19                     0                       # What read queue length does an incoming req see
system.mem_ctrls1.rdQLenPdf::20                     0                       # What read queue length does an incoming req see
system.mem_ctrls1.rdQLenPdf::21                     0                       # What read queue length does an incoming req see
system.mem_ctrls1.rdQLenPdf::22                     0                       # What read queue length does an incoming req see
system.mem_ctrls1.rdQLenPdf::23                     0                       # What read queue length does an incoming req see
system.mem_ctrls1.rdQLenPdf::24                     0                       # What read queue length does an incoming req see
system.mem_ctrls1.rdQLenPdf::25                     0                       # What read queue length does an incoming req see
system.mem_ctrls1.rdQLenPdf::26                     0                       # What read queue length does an incoming req see
system.mem_ctrls1.rdQLenPdf::27                     0                       # What read queue length does an incoming req see
system.mem_ctrls1.rdQLenPdf::28                     0                       # What read queue length does an incoming req see
system.mem_ctrls1.rdQLenPdf::29                     0                       # What read queue length does an incoming req see
system.mem_ctrls1.rdQLenPdf::30                     0                       # What read queue length does an incoming req see
system.mem_ctrls1.rdQLenPdf::31                     0                       # What read queue length does an incoming req see
system.mem_ctrls1.wrQLenPdf::0                      0                       # What write queue length does an incoming req see
system.mem_ctrls1.wrQLenPdf::1                      0                       # What write queue length does an incoming req see
system.mem_ctrls1.wrQLenPdf::2                      0                       # What write queue length does an incoming req see
system.mem_ctrls1.wrQLenPdf::3                      0                       # What write queue length does an incoming req see
system.mem_ctrls1.wrQLenPdf::4                      0                       # What write queue length does an incoming req see
system.mem_ctrls1.wrQLenPdf::5                      0                       # What write queue length does an incoming req see
system.mem_ctrls1.wrQLenPdf::6                      0                       # What write queue length does an incoming req see
system.mem_ctrls1.wrQLenPdf::7                      0                       # What write queue length does an incoming req see
system.mem_ctrls1.wrQLenPdf::8                      0                       # What write queue length does an incoming req see
system.mem_ctrls1.wrQLenPdf::9                      0                       # What write queue length does an incoming req see
system.mem_ctrls1.wrQLenPdf::10                     0                       # What write queue length does an incoming req see
system.mem_ctrls1.wrQLenPdf::11                     0                       # What write queue length does an incoming req see
system.mem_ctrls1.wrQLenPdf::12                     0                       # What write queue length does an incoming req see
system.mem_ctrls1.wrQLenPdf::13                     0                       # What write queue length does an incoming req see
system.mem_ctrls1.wrQLenPdf::14                     0                       # What write queue length does an incoming req see
system.mem_ctrls1.wrQLenPdf::15                     0                       # What write queue length does an incoming req see
system.mem_ctrls1.wrQLenPdf::16                     0                       # What write queue length does an incoming req see
system.mem_ctrls1.wrQLenPdf::17                     0                       # What write queue length does an incoming req see
system.mem_ctrls1.wrQLenPdf::18                     0                       # What write queue length does an incoming req see
system.mem_ctrls1.wrQLenPdf::19                     0                       # What write queue length does an incoming req see
system.mem_ctrls1.wrQLenPdf::20                     0                       # What write queue length does an incoming req see
system.mem_ctrls1.wrQLenPdf::21                     0                       # What write queue length does an incoming req see
system.mem_ctrls1.wrQLenPdf::22                     0                       # What write queue length does an incoming req see
system.mem_ctrls1.wrQLenPdf::23                     0                       # What write queue length does an incoming req see
system.mem_ctrls1.wrQLenPdf::24                     0                       # What write queue length does an incoming req see
system.mem_ctrls1.wrQLenPdf::25                     0                       # What write queue length does an incoming req see
system.mem_ctrls1.wrQLenPdf::26                     0                       # What write queue length does an incoming req see
system.mem_ctrls1.wrQLenPdf::27                     0                       # What write queue length does an incoming req see
system.mem_ctrls1.wrQLenPdf::28                     0                       # What write queue length does an incoming req see
system.mem_ctrls1.wrQLenPdf::29                     0                       # What write queue length does an incoming req see
system.mem_ctrls1.wrQLenPdf::30                     0                       # What write queue length does an incoming req see
system.mem_ctrls1.wrQLenPdf::31                     0                       # What write queue length does an incoming req see
system.mem_ctrls1.wrQLenPdf::32                     0                       # What write queue length does an incoming req see
system.mem_ctrls1.wrQLenPdf::33                     0                       # What write queue length does an incoming req see
system.mem_ctrls1.wrQLenPdf::34                     0                       # What write queue length does an incoming req see
system.mem_ctrls1.wrQLenPdf::35                     0                       # What write queue length does an incoming req see
system.mem_ctrls1.wrQLenPdf::36                     0                       # What write queue length does an incoming req see
system.mem_ctrls1.wrQLenPdf::37                     0                       # What write queue length does an incoming req see
system.mem_ctrls1.wrQLenPdf::38                     0                       # What write queue length does an incoming req see
system.mem_ctrls1.wrQLenPdf::39                     0                       # What write queue length does an incoming req see
system.mem_ctrls1.wrQLenPdf::40                     0                       # What write queue length does an incoming req see
system.mem_ctrls1.wrQLenPdf::41                     0                       # What write queue length does an incoming req see
system.mem_ctrls1.wrQLenPdf::42                     0                       # What write queue length does an incoming req see
system.mem_ctrls1.wrQLenPdf::43                     0                       # What write queue length does an incoming req see
system.mem_ctrls1.wrQLenPdf::44                     0                       # What write queue length does an incoming req see
system.mem_ctrls1.wrQLenPdf::45                     0                       # What write queue length does an incoming req see
system.mem_ctrls1.wrQLenPdf::46                     0                       # What write queue length does an incoming req see
system.mem_ctrls1.wrQLenPdf::47                     0                       # What write queue length does an incoming req see
system.mem_ctrls1.wrQLenPdf::48                     0                       # What write queue length does an incoming req see
system.mem_ctrls1.wrQLenPdf::49                     0                       # What write queue length does an incoming req see
system.mem_ctrls1.wrQLenPdf::50                     0                       # What write queue length does an incoming req see
system.mem_ctrls1.wrQLenPdf::51                     0                       # What write queue length does an incoming req see
system.mem_ctrls1.wrQLenPdf::52                     0                       # What write queue length does an incoming req see
system.mem_ctrls1.wrQLenPdf::53                     0                       # What write queue length does an incoming req see
system.mem_ctrls1.wrQLenPdf::54                     0                       # What write queue length does an incoming req see
system.mem_ctrls1.wrQLenPdf::55                     0                       # What write queue length does an incoming req see
system.mem_ctrls1.wrQLenPdf::56                     0                       # What write queue length does an incoming req see
system.mem_ctrls1.wrQLenPdf::57                     0                       # What write queue length does an incoming req see
system.mem_ctrls1.wrQLenPdf::58                     0                       # What write queue length does an incoming req see
system.mem_ctrls1.wrQLenPdf::59                     0                       # What write queue length does an incoming req see
system.mem_ctrls1.wrQLenPdf::60                     0                       # What write queue length does an incoming req see
system.mem_ctrls1.wrQLenPdf::61                     0                       # What write queue length does an incoming req see
system.mem_ctrls1.wrQLenPdf::62                     0                       # What write queue length does an incoming req see
system.mem_ctrls1.wrQLenPdf::63                     0                       # What write queue length does an incoming req see
system.mem_ctrls1.bytesPerActivate::samples         5567                       # Bytes accessed per row activation
system.mem_ctrls1.bytesPerActivate::mean   280.682594                       # Bytes accessed per row activation
system.mem_ctrls1.bytesPerActivate::gmean   205.888879                       # Bytes accessed per row activation
system.mem_ctrls1.bytesPerActivate::stdev   226.075658                       # Bytes accessed per row activation
system.mem_ctrls1.bytesPerActivate::0-127         1266     22.74%     22.74% # Bytes accessed per row activation
system.mem_ctrls1.bytesPerActivate::128-255         1314     23.60%     46.34% # Bytes accessed per row activation
system.mem_ctrls1.bytesPerActivate::256-383          871     15.65%     61.99% # Bytes accessed per row activation
system.mem_ctrls1.bytesPerActivate::384-511         1679     30.16%     92.15% # Bytes accessed per row activation
system.mem_ctrls1.bytesPerActivate::512-639           98      1.76%     93.91% # Bytes accessed per row activation
system.mem_ctrls1.bytesPerActivate::640-767           25      0.45%     94.36% # Bytes accessed per row activation
system.mem_ctrls1.bytesPerActivate::768-895           24      0.43%     94.79% # Bytes accessed per row activation
system.mem_ctrls1.bytesPerActivate::896-1023           13      0.23%     95.02% # Bytes accessed per row activation
system.mem_ctrls1.bytesPerActivate::1024-1151          277      4.98%    100.00% # Bytes accessed per row activation
system.mem_ctrls1.bytesPerActivate::total         5567                       # Bytes accessed per row activation
system.mem_ctrls1.totQLat                  1037382031                       # Total ticks spent queuing
system.mem_ctrls1.totMemAccLat             1495163281                       # Total ticks spent from burst creation until serviced by the DRAM
system.mem_ctrls1.totBusLat                 122075000                       # Total ticks spent in databus transfers
system.mem_ctrls1.avgQLat                    42489.54                       # Average queueing delay per DRAM burst
system.mem_ctrls1.avgBusLat                   5000.00                       # Average bus latency per DRAM burst
system.mem_ctrls1.avgMemAccLat               61239.54                       # Average memory access latency per DRAM burst
system.mem_ctrls1.avgRdBW                        1.62                       # Average DRAM read bandwidth in MiByte/s
system.mem_ctrls1.avgWrBW                        0.00                       # Average achieved write bandwidth in MiByte/s
system.mem_ctrls1.avgRdBWSys                     1.62                       # Average system read bandwidth in MiByte/s
system.mem_ctrls1.avgWrBWSys                     0.00                       # Average system write bandwidth in MiByte/s
system.mem_ctrls1.peakBW                     12800.00                       # Theoretical peak bandwidth in MiByte/s
system.mem_ctrls1.busUtil                        0.01                       # Data bus utilization in percentage
system.mem_ctrls1.busUtilRead                    0.01                       # Data bus utilization in percentage for reads
system.mem_ctrls1.busUtilWrite                   0.00                       # Data bus utilization in percentage for writes
system.mem_ctrls1.avgRdQLen                      1.04                       # Average read queue length when enqueuing
system.mem_ctrls1.avgWrQLen                      0.00                       # Average write queue length when enqueuing
system.mem_ctrls1.readRowHits                   18848                       # Number of row buffer hits during reads
system.mem_ctrls1.writeRowHits                      0                       # Number of row buffer hits during writes
system.mem_ctrls1.readRowHitRate                77.20                       # Row buffer hit rate for reads
system.mem_ctrls1.writeRowHitRate                 nan                       # Row buffer hit rate for writes
system.mem_ctrls1.avgGap                  39600357.38                       # Average gap between requests
system.mem_ctrls1.pageHitRate                   77.20                       # Row buffer hit rate, read and write combined
system.mem_ctrls1_0.actEnergy                19406520                       # Energy for activate commands per rank (pJ)
system.mem_ctrls1_0.preEnergy                10314810                       # Energy for precharge commands per rank (pJ)
system.mem_ctrls1_0.readEnergy               83280960                       # Energy for read commands per rank (pJ)
system.mem_ctrls1_0.writeEnergy                     0                       # Energy for write commands per rank (pJ)
system.mem_ctrls1_0.refreshEnergy        1671206160.000000                       # Energy for refresh commands per rank (pJ)
system.mem_ctrls1_0.actBackEnergy           451386420                       # Energy for active background per rank (pJ)
system.mem_ctrls1_0.preBackEnergy            99529920                       # Energy for precharge background per rank (pJ)
system.mem_ctrls1_0.actPowerDownEnergy     4658676120                       # Energy for active power-down per rank (pJ)
system.mem_ctrls1_0.prePowerDownEnergy     2017354080                       # Energy for precharge power-down per rank (pJ)
system.mem_ctrls1_0.selfRefreshEnergy    228428428470                       # Energy for self refresh per rank (pJ)
system.mem_ctrls1_0.totalEnergy          237439780410                       # Total energy per rank (pJ)
system.mem_ctrls1_0.averagePower           245.519570                       # Core power per rank (mW)
system.mem_ctrls1_0.totalIdleTime        965608928869                       # Total Idle time Per DRAM Rank
system.mem_ctrls1_0.memoryStateTime::IDLE    194378750                       # Time in different power states
system.mem_ctrls1_0.memoryStateTime::REF    710654000                       # Time in different power states
system.mem_ctrls1_0.memoryStateTime::SREF 950371631300                       # Time in different power states
system.mem_ctrls1_0.memoryStateTime::PRE_PDN   5253526345                       # Time in different power states
system.mem_ctrls1_0.memoryStateTime::ACT    344401816                       # Time in different power states
system.mem_ctrls1_0.memoryStateTime::ACT_PDN  10216465339                       # Time in different power states
system.mem_ctrls1_1.actEnergy                20341860                       # Energy for activate commands per rank (pJ)
system.mem_ctrls1_1.preEnergy                10811955                       # Energy for precharge commands per rank (pJ)
system.mem_ctrls1_1.readEnergy               91042140                       # Energy for read commands per rank (pJ)
system.mem_ctrls1_1.writeEnergy                     0                       # Energy for write commands per rank (pJ)
system.mem_ctrls1_1.refreshEnergy        1695177120.000000                       # Energy for refresh commands per rank (pJ)
system.mem_ctrls1_1.actBackEnergy           486541170                       # Energy for active background per rank (pJ)
system.mem_ctrls1_1.preBackEnergy            94585920                       # Energy for precharge background per rank (pJ)
system.mem_ctrls1_1.actPowerDownEnergy     4840421760                       # Energy for active power-down per rank (pJ)
system.mem_ctrls1_1.prePowerDownEnergy     1931361120                       # Energy for precharge power-down per rank (pJ)
system.mem_ctrls1_1.selfRefreshEnergy    228376017720                       # Energy for self refresh per rank (pJ)
system.mem_ctrls1_1.totalEnergy          237546300765                       # Total energy per rank (pJ)
system.mem_ctrls1_1.averagePower           245.629715                       # Core power per rank (mW)
system.mem_ctrls1_1.totalIdleTime        964384783269                       # Total Idle time Per DRAM Rank
system.mem_ctrls1_1.memoryStateTime::IDLE    181318849                       # Time in different power states
system.mem_ctrls1_1.memoryStateTime::REF    720824000                       # Time in different power states
system.mem_ctrls1_1.memoryStateTime::SREF 950133219800                       # Time in different power states
system.mem_ctrls1_1.memoryStateTime::PRE_PDN   5029609617                       # Time in different power states
system.mem_ctrls1_1.memoryStateTime::ACT    411114801                       # Time in different power states
system.mem_ctrls1_1.memoryStateTime::ACT_PDN  10614970483                       # Time in different power states
system.pwrStateResidencyTicks::UNDEFINED 267369721189452                       # Cumulative time (in ticks) in various power states
system.cpu.branchPred.lookups                       2                       # Number of BP lookups
system.cpu.branchPred.condPredicted                 2                       # Number of conditional branches predicted
system.cpu.branchPred.condIncorrect                 1                       # Number of conditional branches incorrect
system.cpu.branchPred.BTBLookups                    0                       # Number of BTB lookups
system.cpu.branchPred.BTBHits                       0                       # Number of BTB hits
system.cpu.branchPred.BTBCorrect                    0                       # Number of correct BTB predictions (this stat may not work properly.
system.cpu.branchPred.BTBHitPct                   nan                       # BTB Hit Percentage
system.cpu.branchPred.usedRAS                       0                       # Number of times the RAS was used to get a target.
system.cpu.branchPred.RASInCorrect                  0                       # Number of incorrect RAS predictions.
system.cpu.branchPred.indirectLookups               0                       # Number of indirect predictor lookups.
system.cpu.branchPred.indirectHits                  0                       # Number of indirect target hits.
system.cpu.branchPred.indirectMisses                0                       # Number of indirect misses.
system.cpu.branchPredindirectMispredicted            0                       # Number of mispredicted indirect branches.
system.cpu_voltage_domain.voltage                   1                       # Voltage in Volts
system.cpu_clk_domain.clock                       333                       # Clock period in ticks
system.cpu.dtb.fetch_hits                           0                       # ITB hits
system.cpu.dtb.fetch_misses                         0                       # ITB misses
system.cpu.dtb.fetch_acv                            0                       # ITB acv
system.cpu.dtb.fetch_accesses                       0                       # ITB accesses
system.cpu.dtb.read_hits                            1                       # DTB read hits
system.cpu.dtb.read_misses                          0                       # DTB read misses
system.cpu.dtb.read_acv                             0                       # DTB read access violations
system.cpu.dtb.read_accesses                        1                       # DTB read accesses
system.cpu.dtb.write_hits                           0                       # DTB write hits
system.cpu.dtb.write_misses                         0                       # DTB write misses
system.cpu.dtb.write_acv                            0                       # DTB write access violations
system.cpu.dtb.write_accesses                       0                       # DTB write accesses
system.cpu.dtb.data_hits                            1                       # DTB hits
system.cpu.dtb.data_misses                          0                       # DTB misses
system.cpu.dtb.data_acv                             0                       # DTB access violations
system.cpu.dtb.data_accesses                        1                       # DTB accesses
system.cpu.itb.fetch_hits                           4                       # ITB hits
system.cpu.itb.fetch_misses                         0                       # ITB misses
system.cpu.itb.fetch_acv                            0                       # ITB acv
system.cpu.itb.fetch_accesses                       4                       # ITB accesses
system.cpu.itb.read_hits                            0                       # DTB read hits
system.cpu.itb.read_misses                          0                       # DTB read misses
system.cpu.itb.read_acv                             0                       # DTB read access violations
system.cpu.itb.read_accesses                        0                       # DTB read accesses
system.cpu.itb.write_hits                           0                       # DTB write hits
system.cpu.itb.write_misses                         0                       # DTB write misses
system.cpu.itb.write_acv                            0                       # DTB write access violations
system.cpu.itb.write_accesses                       0                       # DTB write accesses
system.cpu.itb.data_hits                            0                       # DTB hits
system.cpu.itb.data_misses                          0                       # DTB misses
system.cpu.itb.data_acv                             0                       # DTB access violations
system.cpu.itb.data_accesses                        0                       # DTB accesses
system.cpu.workload.num_syscalls                    0                       # Number of system calls
system.cpu.pwrStateResidencyTicks::ON    967091057550                       # Cumulative time (in ticks) in various power states
system.cpu.numCycles                              359                       # number of cpu cycles simulated
system.cpu.numWorkItemsStarted                      0                       # number of work items this cpu started
system.cpu.numWorkItemsCompleted                    0                       # number of work items this cpu completed
system.cpu.fetch.icacheStallCycles                 19                       # Number of cycles fetch is stalled on an Icache miss
system.cpu.fetch.Insts                             16                       # Number of instructions fetch has processed
system.cpu.fetch.Branches                           2                       # Number of branches that fetch encountered
system.cpu.fetch.Cycles                             2                       # Number of cycles fetch has run and was not squashing or blocked
system.cpu.fetch.SquashCycles                       5                       # Number of cycles fetch has spent squashing
system.cpu.fetch.PendingDrainCycles                 6                       # Number of cycles fetch has spent waiting on pipes to drain
system.cpu.fetch.CacheLines                         4                       # Number of cache lines fetched
system.cpu.fetch.IcacheSquashes                     3                       # Number of outstanding Icache misses that were squashed
system.cpu.fetch.rateDist::samples                 29                       # Number of instructions fetched each cycle (Total)
system.cpu.fetch.rateDist::mean              0.551724                       # Number of instructions fetched each cycle (Total)
system.cpu.fetch.rateDist::stdev             2.063046                       # Number of instructions fetched each cycle (Total)
system.cpu.fetch.rateDist::underflows               0      0.00%      0.00% # Number of instructions fetched each cycle (Total)
system.cpu.fetch.rateDist::0                       27     93.10%     93.10% # Number of instructions fetched each cycle (Total)
system.cpu.fetch.rateDist::1                        0      0.00%     93.10% # Number of instructions fetched each cycle (Total)
system.cpu.fetch.rateDist::2                        0      0.00%     93.10% # Number of instructions fetched each cycle (Total)
system.cpu.fetch.rateDist::3                        0      0.00%     93.10% # Number of instructions fetched each cycle (Total)
system.cpu.fetch.rateDist::4                        0      0.00%     93.10% # Number of instructions fetched each cycle (Total)
system.cpu.fetch.rateDist::5                        0      0.00%     93.10% # Number of instructions fetched each cycle (Total)
system.cpu.fetch.rateDist::6                        0      0.00%     93.10% # Number of instructions fetched each cycle (Total)
system.cpu.fetch.rateDist::7                        0      0.00%     93.10% # Number of instructions fetched each cycle (Total)
system.cpu.fetch.rateDist::8                        2      6.90%    100.00% # Number of instructions fetched each cycle (Total)
system.cpu.fetch.rateDist::overflows                0      0.00%    100.00% # Number of instructions fetched each cycle (Total)
system.cpu.fetch.rateDist::min_value                0                       # Number of instructions fetched each cycle (Total)
system.cpu.fetch.rateDist::max_value                8                       # Number of instructions fetched each cycle (Total)
system.cpu.fetch.rateDist::total                   29                       # Number of instructions fetched each cycle (Total)
system.cpu.fetch.branchRate                  0.005571                       # Number of branch fetches per cycle
system.cpu.fetch.rate                        0.044568                       # Number of inst fetches per cycle
system.cpu.decode.IdleCycles                       23                       # Number of cycles decode is idle
system.cpu.decode.BlockedCycles                     1                       # Number of cycles decode is blocked
system.cpu.decode.RunCycles                         2                       # Number of cycles decode is running
system.cpu.decode.SquashCycles                      3                       # Number of cycles decode is squashing
system.cpu.decode.DecodedInsts                     16                       # Number of instructions handled by decode
system.cpu.rename.SquashCycles                      3                       # Number of cycles rename is squashing
system.cpu.rename.IdleCycles                       22                       # Number of cycles rename is idle
system.cpu.rename.BlockCycles                       2                       # Number of cycles rename is blocking
system.cpu.rename.serializeStallCycles              0                       # count of cycles rename stalled for serializing inst
system.cpu.rename.RunCycles                         2                       # Number of cycles rename is running
system.cpu.rename.RenamedInsts                     16                       # Number of instructions processed by rename
system.cpu.rename.RenamedOperands                  13                       # Number of destination operands rename has renamed
system.cpu.rename.RenameLookups                    26                       # Number of register rename lookups that rename has made
system.cpu.rename.int_rename_lookups               12                       # Number of integer rename lookups
system.cpu.rename.fp_rename_lookups                14                       # Number of floating rename lookups
system.cpu.rename.CommittedMaps                     3                       # Number of HB maps that are committed
system.cpu.rename.UndoneMaps                       10                       # Number of HB maps that are undone due to squashing
system.cpu.rename.serializingInsts                  0                       # count of serializing insts renamed
system.cpu.rename.tempSerializingInsts              0                       # count of temporary serializing insts renamed
system.cpu.rename.skidInsts                         0                       # count of insts added to the skid buffer
system.cpu.memDep0.insertedLoads                    1                       # Number of loads inserted to the mem dependence unit.
system.cpu.memDep0.insertedStores                   1                       # Number of stores inserted to the mem dependence unit.
system.cpu.memDep0.conflictingLoads                 0                       # Number of conflicting loads.
system.cpu.memDep0.conflictingStores                0                       # Number of conflicting stores.
system.cpu.iq.iqInstsAdded                         16                       # Number of instructions added to the IQ (excludes non-spec)
system.cpu.iq.iqInstsIssued                         8                       # Number of instructions issued
system.cpu.iq.iqSquashedInstsExamined              13                       # Number of squashed instructions iterated over during squash; mainly for profiling
system.cpu.iq.iqSquashedOperandsExamined           16                       # Number of squashed operands that are examined and possibly removed from graph
system.cpu.iq.issued_per_cycle::samples            29                       # Number of insts issued each cycle
system.cpu.iq.issued_per_cycle::mean         0.275862                       # Number of insts issued each cycle
system.cpu.iq.issued_per_cycle::stdev        0.921821                       # Number of insts issued each cycle
system.cpu.iq.issued_per_cycle::underflows            0      0.00%      0.00% # Number of insts issued each cycle
system.cpu.iq.issued_per_cycle::0                  26     89.66%     89.66% # Number of insts issued each cycle
system.cpu.iq.issued_per_cycle::1                   1      3.45%     93.10% # Number of insts issued each cycle
system.cpu.iq.issued_per_cycle::2                   0      0.00%     93.10% # Number of insts issued each cycle
system.cpu.iq.issued_per_cycle::3                   1      3.45%     96.55% # Number of insts issued each cycle
system.cpu.iq.issued_per_cycle::4                   1      3.45%    100.00% # Number of insts issued each cycle
system.cpu.iq.issued_per_cycle::5                   0      0.00%    100.00% # Number of insts issued each cycle
system.cpu.iq.issued_per_cycle::6                   0      0.00%    100.00% # Number of insts issued each cycle
system.cpu.iq.issued_per_cycle::7                   0      0.00%    100.00% # Number of insts issued each cycle
system.cpu.iq.issued_per_cycle::8                   0      0.00%    100.00% # Number of insts issued each cycle
system.cpu.iq.issued_per_cycle::overflows            0      0.00%    100.00% # Number of insts issued each cycle
system.cpu.iq.issued_per_cycle::min_value            0                       # Number of insts issued each cycle
system.cpu.iq.issued_per_cycle::max_value            4                       # Number of insts issued each cycle
system.cpu.iq.issued_per_cycle::total              29                       # Number of insts issued each cycle
system.cpu.iq.fu_full::No_OpClass                   0                       # attempts to use FU when none available
system.cpu.iq.fu_full::IntAlu                       0                       # attempts to use FU when none available
system.cpu.iq.fu_full::IntMult                      0                       # attempts to use FU when none available
system.cpu.iq.fu_full::IntDiv                       0                       # attempts to use FU when none available
system.cpu.iq.fu_full::FloatAdd                     0                       # attempts to use FU when none available
system.cpu.iq.fu_full::FloatCmp                     0                       # attempts to use FU when none available
[...]
system.switch_cpus_1.iq.fu_busy_rate         0.002833                       # FU busy rate (busy events/executed inst)
system.switch_cpus_1.iq.int_inst_queue_reads    904124271                       # Number of integer instruction queue reads
system.switch_cpus_1.iq.int_inst_queue_writes    323372589                       # Number of integer instruction queue writes
system.switch_cpus_1.iq.int_inst_queue_wakeup_accesses    283733312                       # Number of integer instruction queue wakeup accesses
system.switch_cpus_1.iq.fp_inst_queue_reads    518788350                       # Number of floating instruction queue reads
system.switch_cpus_1.iq.fp_inst_queue_writes    316493273                       # Number of floating instruction queue writes
system.switch_cpus_1.iq.fp_inst_queue_wakeup_accesses    255942473                       # Number of floating instruction queue wakeup accesses
system.switch_cpus_1.iq.int_alu_accesses    285966351                       # Number of integer alu accesses
system.switch_cpus_1.iq.fp_alu_accesses     260053118                       # Number of floating point alu accesses
system.switch_cpus_1.iew.lsq.thread0.forwLoads     33681203                       # Number of loads that had data forwarded from stores
system.switch_cpus_1.iew.lsq.thread0.invAddrLoads            0                       # Number of loads ignored due to an invalid address
system.switch_cpus_1.iew.lsq.thread0.squashedLoads     12251568                       # Number of loads squashed
system.switch_cpus_1.iew.lsq.thread0.ignoredResponses         2385                       # Number of memory responses ignored because the instruction is squashed
system.switch_cpus_1.iew.lsq.thread0.memOrderViolation       574947                       # Number of memory ordering violations
system.switch_cpus_1.iew.lsq.thread0.squashedStores      5774097                       # Number of stores squashed
system.switch_cpus_1.iew.lsq.thread0.invAddrSwpfs            0                       # Number of software prefetches ignored due to an invalid address
system.switch_cpus_1.iew.lsq.thread0.blockedLoads            0                       # Number of blocked loads due to partial load-store forwarding
system.switch_cpus_1.iew.lsq.thread0.rescheduledLoads            0                       # Number of loads that were rescheduled
system.switch_cpus_1.iew.lsq.thread0.cacheBlocked          459                       # Number of times an access to memory failed due to the cache being blocked
system.switch_cpus_1.iew.iewIdleCycles              0                       # Number of cycles IEW is idle
system.switch_cpus_1.iew.iewSquashCycles      2781501                       # Number of cycles IEW is squashing
system.switch_cpus_1.iew.iewBlockCycles       8847851                       # Number of cycles IEW is blocking
system.switch_cpus_1.iew.iewUnblockCycles      4785136                       # Number of cycles IEW is unblocking
system.switch_cpus_1.iew.iewDispatchedInsts    570024956                       # Number of instructions dispatched to IQ
system.switch_cpus_1.iew.iewDispSquashedInsts       795909                       # Number of squashed instructions skipped by dispatch
system.switch_cpus_1.iew.iewDispLoadInsts    112308172                       # Number of dispatched load instructions
system.switch_cpus_1.iew.iewDispStoreInsts     45358627                       # Number of dispatched store instructions
system.switch_cpus_1.iew.iewDispNonSpecInsts            0                       # Number of dispatched non-speculative instructions
system.switch_cpus_1.iew.iewIQFullEvents      4043828                       # Number of times the IQ has become full, causing a stall
system.switch_cpus_1.iew.iewLSQFullEvents       697545                       # Number of times the LSQ has become full, causing a stall
system.switch_cpus_1.iew.memOrderViolationEvents       574947                       # Number of memory order violations
system.switch_cpus_1.iew.predictedTakenIncorrect      1940434                       # Number of branches that were predicted taken incorrectly
system.switch_cpus_1.iew.predictedNotTakenIncorrect       331913                       # Number of branches that were predicted not taken incorrectly
system.switch_cpus_1.iew.branchMispredicts      2272347                       # Number of branch mispredicts detected at execute
system.switch_cpus_1.iew.iewExecutedInsts    541608769                       # Number of executed instructions
system.switch_cpus_1.iew.iewExecLoadInsts    104867817                       # Number of load instructions executed
system.switch_cpus_1.iew.iewExecSquashedInsts      2873413                       # Number of squashed instructions skipped in execute
system.switch_cpus_1.iew.exec_swp                   0                       # number of swp insts executed
system.switch_cpus_1.iew.exec_nop              379473                       # number of nop insts executed
system.switch_cpus_1.iew.exec_refs          145507986                       # number of memory reference insts executed
system.switch_cpus_1.iew.exec_branches       47478332                       # Number of branches executed
system.switch_cpus_1.iew.exec_stores         40640169                       # Number of stores executed
system.switch_cpus_1.iew.exec_rate           1.629473                       # Inst execution rate
system.switch_cpus_1.iew.wb_sent            539911517                       # cumulative count of insts sent to commit
system.switch_cpus_1.iew.wb_count           539675785                       # cumulative count of insts written-back
system.switch_cpus_1.iew.wb_producers       377967699                       # num instructions producing a value
system.switch_cpus_1.iew.wb_consumers       439935186                       # num instructions consuming a value
system.switch_cpus_1.iew.wb_rate             1.623658                       # insts written-back per cycle
system.switch_cpus_1.iew.wb_fanout           0.859144                       # average fanout of values written-back
system.switch_cpus_1.commit.commitSquashedInsts     69710273                       # The number of squashed insts skipped by commit
system.switch_cpus_1.commit.branchMispredicts      2208793                       # The number of times a branch was mispredicted
system.switch_cpus_1.commit.committed_per_cycle::samples    321746035                       # Number of insts commited each cycle
system.switch_cpus_1.commit.committed_per_cycle::mean     1.554986                       # Number of insts commited each cycle
system.switch_cpus_1.commit.committed_per_cycle::stdev     2.424274                       # Number of insts commited each cycle
system.switch_cpus_1.commit.committed_per_cycle::underflows            0      0.00%      0.00% # Number of insts commited each cycle
system.switch_cpus_1.commit.committed_per_cycle::0    151735845     47.16%     47.16% # Number of insts commited each cycle
system.switch_cpus_1.commit.committed_per_cycle::1     81288706     25.26%     72.42% # Number of insts commited each cycle
system.switch_cpus_1.commit.committed_per_cycle::2     32213319     10.01%     82.44% # Number of insts commited each cycle
system.switch_cpus_1.commit.committed_per_cycle::3     13581097      4.22%     86.66% # Number of insts commited each cycle
system.switch_cpus_1.commit.committed_per_cycle::4      2118377      0.66%     87.32% # Number of insts commited each cycle
system.switch_cpus_1.commit.committed_per_cycle::5       723708      0.22%     87.54% # Number of insts commited each cycle
system.switch_cpus_1.commit.committed_per_cycle::6      1457102      0.45%     87.99% # Number of insts commited each cycle
system.switch_cpus_1.commit.committed_per_cycle::7     16005857      4.97%     92.97% # Number of insts commited each cycle
system.switch_cpus_1.commit.committed_per_cycle::8     22622024      7.03%    100.00% # Number of insts commited each cycle
system.switch_cpus_1.commit.committed_per_cycle::overflows            0      0.00%    100.00% # Number of insts commited each cycle
system.switch_cpus_1.commit.committed_per_cycle::min_value            0                       # Number of insts commited each cycle
system.switch_cpus_1.commit.committed_per_cycle::max_value            8                       # Number of insts commited each cycle
system.switch_cpus_1.commit.committed_per_cycle::total    321746035                       # Number of insts commited each cycle
system.switch_cpus_1.commit.committedInsts    500310486                       # Number of instructions committed
system.switch_cpus_1.commit.committedOps    500310486                       # Number of ops (including micro ops) committed
system.switch_cpus_1.commit.swp_count               0                       # Number of s/w prefetches committed
system.switch_cpus_1.commit.refs            139641126                       # Number of memory references committed
system.switch_cpus_1.commit.loads           100056600                       # Number of loads committed
system.switch_cpus_1.commit.membars                 0                       # Number of memory barriers committed
system.switch_cpus_1.commit.branches         43103237                       # Number of branches committed
system.switch_cpus_1.commit.fp_insts        248897121                       # Number of committed floating point instructions.
system.switch_cpus_1.commit.int_insts       387901750                       # Number of committed integer instructions.
system.switch_cpus_1.commit.function_calls       248275                       # Number of function calls committed.
system.switch_cpus_1.commit.op_class_0::No_OpClass       315681      0.06%      0.06% # Class of committed instruction
system.switch_cpus_1.commit.op_class_0::IntAlu    249485399     49.87%     49.93% # Class of committed instruction
system.switch_cpus_1.commit.op_class_0::IntMult         2638      0.00%     49.93% # Class of committed instruction
system.switch_cpus_1.commit.op_class_0::IntDiv            0      0.00%     49.93% # Class of committed instruction
system.switch_cpus_1.commit.op_class_0::FloatAdd     74120990     14.81%     64.74% # Class of committed instruction
system.switch_cpus_1.commit.op_class_0::FloatCmp      3322458      0.66%     65.41% # Class of committed instruction
system.switch_cpus_1.commit.op_class_0::FloatCvt        84006      0.02%     65.43% # Class of committed instruction
system.switch_cpus_1.commit.op_class_0::FloatMult     33226113      6.64%     72.07% # Class of committed instruction
system.switch_cpus_1.commit.op_class_0::FloatMultAcc            0      0.00%     72.07% # Class of committed instruction
system.switch_cpus_1.commit.op_class_0::FloatDiv       111813      0.02%     72.09% # Class of committed instruction
system.switch_cpus_1.commit.op_class_0::FloatMisc            0      0.00%     72.09% # Class of committed instruction
system.switch_cpus_1.commit.op_class_0::FloatSqrt          262      0.00%     72.09% # Class of committed instruction
system.switch_cpus_1.commit.op_class_0::SimdAdd            0      0.00%     72.09% # Class of committed instruction
system.switch_cpus_1.commit.op_class_0::SimdAddAcc            0      0.00%     72.09% # Class of committed instruction
system.switch_cpus_1.commit.op_class_0::SimdAlu            0      0.00%     72.09% # Class of committed instruction
system.switch_cpus_1.commit.op_class_0::SimdCmp            0      0.00%     72.09% # Class of committed instruction
system.switch_cpus_1.commit.op_class_0::SimdCvt            0      0.00%     72.09% # Class of committed instruction
system.switch_cpus_1.commit.op_class_0::SimdMisc            0      0.00%     72.09% # Class of committed instruction
system.switch_cpus_1.commit.op_class_0::SimdMult            0      0.00%     72.09% # Class of committed instruction
system.switch_cpus_1.commit.op_class_0::SimdMultAcc            0      0.00%     72.09% # Class of committed instruction
system.switch_cpus_1.commit.op_class_0::SimdShift            0      0.00%     72.09% # Class of committed instruction
system.switch_cpus_1.commit.op_class_0::SimdShiftAcc            0      0.00%     72.09% # Class of committed instruction
system.switch_cpus_1.commit.op_class_0::SimdSqrt            0      0.00%     72.09% # Class of committed instruction
system.switch_cpus_1.commit.op_class_0::SimdFloatAdd            0      0.00%     72.09% # Class of committed instruction
system.switch_cpus_1.commit.op_class_0::SimdFloatAlu            0      0.00%     72.09% # Class of committed instruction
system.switch_cpus_1.commit.op_class_0::SimdFloatCmp            0      0.00%     72.09% # Class of committed instruction
system.switch_cpus_1.commit.op_class_0::SimdFloatCvt            0      0.00%     72.09% # Class of committed instruction
system.switch_cpus_1.commit.op_class_0::SimdFloatDiv            0      0.00%     72.09% # Class of committed instruction
system.switch_cpus_1.commit.op_class_0::SimdFloatMisc            0      0.00%     72.09% # Class of committed instruction
system.switch_cpus_1.commit.op_class_0::SimdFloatMult            0      0.00%     72.09% # Class of committed instruction
system.switch_cpus_1.commit.op_class_0::SimdFloatMultAcc            0      0.00%     72.09% # Class of committed instruction
system.switch_cpus_1.commit.op_class_0::SimdFloatSqrt            0      0.00%     72.09% # Class of committed instruction
system.switch_cpus_1.commit.op_class_0::MemRead       872041      0.17%     72.26% # Class of committed instruction
system.switch_cpus_1.commit.op_class_0::MemWrite       737606      0.15%     72.41% # Class of committed instruction
system.switch_cpus_1.commit.op_class_0::FloatMemRead     99184559     19.82%     92.24% # Class of committed instruction
system.switch_cpus_1.commit.op_class_0::FloatMemWrite     38846920      7.76%    100.00% # Class of committed instruction
system.switch_cpus_1.commit.op_class_0::IprAccess            0      0.00%    100.00% # Class of committed instruction
system.switch_cpus_1.commit.op_class_0::InstPrefetch            0      0.00%    100.00% # Class of committed instruction
system.switch_cpus_1.commit.op_class_0::total    500310486                       # Class of committed instruction
system.switch_cpus_1.commit.bw_lim_events     22622024                       # number cycles where commit BW limit reached
system.switch_cpus_1.rob.rob_reads          869142417                       # The number of ROB reads
system.switch_cpus_1.rob.rob_writes        1150736391                       # The number of ROB writes
system.switch_cpus_1.timesIdled                     1                       # Number of times that the entire CPU went into an idle state and unscheduled itself
system.switch_cpus_1.idleCycles                     3                       # Total number of cycles that the CPU has spent unscheduled due to idling
system.switch_cpus_1.committedInsts         500000003                       # Number of Instructions Simulated
system.switch_cpus_1.committedOps           500000003                       # Number of Ops (including micro ops) Simulated
system.switch_cpus_1.cpi                     0.664766                       # CPI: Cycles Per Instruction
system.switch_cpus_1.cpi_total               0.664766                       # CPI: Total CPI of All Threads
system.switch_cpus_1.ipc                     1.504290                       # IPC: Instructions Per Cycle
system.switch_cpus_1.ipc_total               1.504290                       # IPC: Total IPC of All Threads
system.switch_cpus_1.int_regfile_reads      575058845                       # number of integer regfile reads
system.switch_cpus_1.int_regfile_writes     239287608                       # number of integer regfile writes
system.switch_cpus_1.fp_regfile_reads       264550803                       # number of floating regfile reads
system.switch_cpus_1.fp_regfile_writes      212798283                       # number of floating regfile writes
system.switch_cpus_1.misc_regfile_reads      74108596                       # number of misc regfile reads
system.switch_cpus_1.misc_regfile_writes         2599                       # number of misc regfile writes
system.tol3bus.snoop_filter.tot_requests        94251                       # Total number of requests made to the snoop filter.
system.tol3bus.snoop_filter.hit_single_requests        44869                       # Number of requests hitting in the snoop filter with a single holder of the requested data.
system.tol3bus.snoop_filter.hit_multi_requests            0                       # Number of requests hitting in the snoop filter with multiple (>1) holders of the requested data.
system.tol3bus.snoop_filter.tot_snoops              0                       # Total number of snoops made to the snoop filter.
system.tol3bus.snoop_filter.hit_single_snoops            0                       # Number of snoops hitting in the snoop filter with a single holder of the requested data.
system.tol3bus.snoop_filter.hit_multi_snoops            0                       # Number of snoops hitting in the snoop filter with multiple (>1) holders of the requested data.
system.tol3bus.pwrStateResidencyTicks::UNDEFINED 267369721189452                       # Cumulative time (in ticks) in various power states
system.tol3bus.trans_dist::ReadResp              5732                       # Transaction distribution
system.tol3bus.trans_dist::WritebackDirty        40024                       # Transaction distribution
system.tol3bus.trans_dist::CleanEvict            4845                       # Transaction distribution
system.tol3bus.trans_dist::ReadExReq            43650                       # Transaction distribution
system.tol3bus.trans_dist::ReadExResp           43650                       # Transaction distribution
system.tol3bus.trans_dist::ReadSharedReq         5732                       # Transaction distribution
system.tol3bus.pkt_count_system.cpu.l2.mem_side::system.l3.cpu_side       143633                       # Packet count per connected master and slave (bytes)
system.tol3bus.pkt_size_system.cpu.l2.mem_side::system.l3.cpu_side      5721984                       # Cumulative packet size per connected master and slave (bytes)
system.tol3bus.snoops                               0                       # Total snoops (count)
system.tol3bus.snoopTraffic                         0                       # Total snoop traffic (bytes)
system.tol3bus.snoop_fanout::samples            49382                       # Request fanout histogram
system.tol3bus.snoop_fanout::mean                   0                       # Request fanout histogram
system.tol3bus.snoop_fanout::stdev                  0                       # Request fanout histogram
system.tol3bus.snoop_fanout::underflows             0      0.00%      0.00% # Request fanout histogram
system.tol3bus.snoop_fanout::0                  49382    100.00%    100.00% # Request fanout histogram
system.tol3bus.snoop_fanout::1                      0      0.00%    100.00% # Request fanout histogram
system.tol3bus.snoop_fanout::overflows              0      0.00%    100.00% # Request fanout histogram
system.tol3bus.snoop_fanout::min_value              0                       # Request fanout histogram
system.tol3bus.snoop_fanout::max_value              0                       # Request fanout histogram
system.tol3bus.snoop_fanout::total              49382                       # Request fanout histogram
system.tol3bus.reqLayer0.occupancy           44713575                       # Layer occupancy (ticks)
system.tol3bus.reqLayer0.utilization              0.0                       # Layer utilization (%)
system.tol3bus.respLayer0.occupancy          32888412                       # Layer occupancy (ticks)
system.tol3bus.respLayer0.utilization             0.0                       # Layer utilization (%)

---------- End Simulation Statistics   ----------
