
---------- Begin Simulation Statistics ----------
sim_seconds                                  1.283019                       # Number of seconds simulated
sim_ticks                                1283018657040                       # Number of ticks simulated
final_tick                               118517715089226                       # Number of ticks from beginning of simulation (restored from checkpoints and never reset)
sim_freq                                 1000000000000                       # Frequency of simulated ticks
host_inst_rate                                 599542                       # Simulator instruction rate (inst/s)
host_op_rate                                   599542                       # Simulator op (including micro ops) rate (op/s)
host_tick_rate                              641019172                       # Simulator tick rate (ticks/s)
host_mem_usage                                2588584                       # Number of bytes of host memory used
host_seconds                                  2001.53                       # Real time elapsed on the host
sim_insts                                  1200000007                       # Number of instructions simulated
sim_ops                                    1200000007                       # Number of ops (including micro ops) simulated
system.voltage_domain.voltage                       1                       # Voltage in Volts
system.clk_domain.clock                          1000                       # Clock period in ticks
system.mem_ctrls0.pwrStateResidencyTicks::UNDEFINED 118517715089226                       # Cumulative time (in ticks) in various power states
system.mem_ctrls0.bytes_read::cpu.inst             64                       # Number of bytes read from this memory
system.mem_ctrls0.bytes_read::switch_cpus.inst        21888                       # Number of bytes read from this memory
system.mem_ctrls0.bytes_read::switch_cpus.data    118817344                       # Number of bytes read from this memory
system.mem_ctrls0.bytes_read::switch_cpus_1.inst          384                       # Number of bytes read from this memory
system.mem_ctrls0.bytes_read::switch_cpus_1.data     21540864                       # Number of bytes read from this memory
system.mem_ctrls0.bytes_read::total         140380544                       # Number of bytes read from this memory
system.mem_ctrls0.bytes_inst_read::cpu.inst           64                       # Number of instructions bytes read from this memory
system.mem_ctrls0.bytes_inst_read::switch_cpus.inst        21888                       # Number of instructions bytes read from this memory
system.mem_ctrls0.bytes_inst_read::switch_cpus_1.inst          384                       # Number of instructions bytes read from this memory
system.mem_ctrls0.bytes_inst_read::total        22336                       # Number of instructions bytes read from this memory
system.mem_ctrls0.bytes_written::writebacks     55955904                       # Number of bytes written to this memory
system.mem_ctrls0.bytes_written::total       55955904                       # Number of bytes written to this memory
system.mem_ctrls0.num_reads::cpu.inst               1                       # Number of read requests responded to by this memory
system.mem_ctrls0.num_reads::switch_cpus.inst          342                       # Number of read requests responded to by this memory
system.mem_ctrls0.num_reads::switch_cpus.data      1856521                       # Number of read requests responded to by this memory
system.mem_ctrls0.num_reads::switch_cpus_1.inst            6                       # Number of read requests responded to by this memory
system.mem_ctrls0.num_reads::switch_cpus_1.data       336576                       # Number of read requests responded to by this memory
system.mem_ctrls0.num_reads::total            2193446                       # Number of read requests responded to by this memory
system.mem_ctrls0.num_writes::writebacks       874311                       # Number of write requests responded to by this memory
system.mem_ctrls0.num_writes::total            874311                       # Number of write requests responded to by this memory
system.mem_ctrls0.bw_read::cpu.inst                50                       # Total read bandwidth from this memory (bytes/s)
system.mem_ctrls0.bw_read::switch_cpus.inst        17060                       # Total read bandwidth from this memory (bytes/s)
system.mem_ctrls0.bw_read::switch_cpus.data     92607651                       # Total read bandwidth from this memory (bytes/s)
system.mem_ctrls0.bw_read::switch_cpus_1.inst          299                       # Total read bandwidth from this memory (bytes/s)
system.mem_ctrls0.bw_read::switch_cpus_1.data     16789206                       # Total read bandwidth from this memory (bytes/s)
system.mem_ctrls0.bw_read::total            109414266                       # Total read bandwidth from this memory (bytes/s)
system.mem_ctrls0.bw_inst_read::cpu.inst           50                       # Instruction read bandwidth from this memory (bytes/s)
system.mem_ctrls0.bw_inst_read::switch_cpus.inst        17060                       # Instruction read bandwidth from this memory (bytes/s)
system.mem_ctrls0.bw_inst_read::switch_cpus_1.inst          299                       # Instruction read bandwidth from this memory (bytes/s)
system.mem_ctrls0.bw_inst_read::total           17409                       # Instruction read bandwidth from this memory (bytes/s)
system.mem_ctrls0.bw_write::writebacks       43612697                       # Write bandwidth from this memory (bytes/s)
system.mem_ctrls0.bw_write::total            43612697                       # Write bandwidth from this memory (bytes/s)
system.mem_ctrls0.bw_total::writebacks       43612697                       # Total bandwidth to/from this memory (bytes/s)
system.mem_ctrls0.bw_total::cpu.inst               50                       # Total bandwidth to/from this memory (bytes/s)
system.mem_ctrls0.bw_total::switch_cpus.inst        17060                       # Total bandwidth to/from this memory (bytes/s)
system.mem_ctrls0.bw_total::switch_cpus.data     92607651                       # Total bandwidth to/from this memory (bytes/s)
system.mem_ctrls0.bw_total::switch_cpus_1.inst          299                       # Total bandwidth to/from this memory (bytes/s)
system.mem_ctrls0.bw_total::switch_cpus_1.data     16789206                       # Total bandwidth to/from this memory (bytes/s)
system.mem_ctrls0.bw_total::total           153026963                       # Total bandwidth to/from this memory (bytes/s)
system.mem_ctrls0.readReqs                    2193446                       # Number of read requests accepted
system.mem_ctrls0.writeReqs                    874311                       # Number of write requests accepted
system.mem_ctrls0.readBursts                  2193446                       # Number of DRAM read bursts, including those serviced by the write queue
system.mem_ctrls0.writeBursts                  874311                       # Number of DRAM write bursts, including those merged in the write queue
system.mem_ctrls0.bytesReadDRAM             140379136                       # Total number of bytes read from DRAM
system.mem_ctrls0.bytesReadWrQ                   1408                       # Total number of bytes read from write queue
system.mem_ctrls0.bytesWritten               55954688                       # Total number of bytes written to DRAM
system.mem_ctrls0.bytesReadSys              140380544                       # Total read bytes from the system interface side
system.mem_ctrls0.bytesWrittenSys            55955904                       # Total written bytes from the system interface side
system.mem_ctrls0.servicedByWrQ                    22                       # Number of DRAM read bursts serviced by the write queue
system.mem_ctrls0.mergedWrBursts                    0                       # Number of DRAM write bursts merged with an existing one
system.mem_ctrls0.neitherReadNorWriteReqs            0                       # Number of requests that are neither read nor write
system.mem_ctrls0.perBankRdBursts::0           136822                       # Per bank write bursts
system.mem_ctrls0.perBankRdBursts::1           137148                       # Per bank write bursts
system.mem_ctrls0.perBankRdBursts::2           137553                       # Per bank write bursts
system.mem_ctrls0.perBankRdBursts::3           136899                       # Per bank write bursts
system.mem_ctrls0.perBankRdBursts::4           137649                       # Per bank write bursts
system.mem_ctrls0.perBankRdBursts::5           137051                       # Per bank write bursts
system.mem_ctrls0.perBankRdBursts::6           137654                       # Per bank write bursts
system.mem_ctrls0.perBankRdBursts::7           136625                       # Per bank write bursts
system.mem_ctrls0.perBankRdBursts::8           137230                       # Per bank write bursts
system.mem_ctrls0.perBankRdBursts::9           137334                       # Per bank write bursts
system.mem_ctrls0.perBankRdBursts::10          136895                       # Per bank write bursts
system.mem_ctrls0.perBankRdBursts::11          137213                       # Per bank write bursts
system.mem_ctrls0.perBankRdBursts::12          137236                       # Per bank write bursts
system.mem_ctrls0.perBankRdBursts::13          136342                       # Per bank write bursts
system.mem_ctrls0.perBankRdBursts::14          136718                       # Per bank write bursts
system.mem_ctrls0.perBankRdBursts::15          137055                       # Per bank write bursts
system.mem_ctrls0.perBankWrBursts::0            54571                       # Per bank write bursts
system.mem_ctrls0.perBankWrBursts::1            54365                       # Per bank write bursts
system.mem_ctrls0.perBankWrBursts::2            54666                       # Per bank write bursts
system.mem_ctrls0.perBankWrBursts::3            54605                       # Per bank write bursts
system.mem_ctrls0.perBankWrBursts::4            54449                       # Per bank write bursts
system.mem_ctrls0.perBankWrBursts::5            54659                       # Per bank write bursts
system.mem_ctrls0.perBankWrBursts::6            55290                       # Per bank write bursts
system.mem_ctrls0.perBankWrBursts::7            54572                       # Per bank write bursts
system.mem_ctrls0.perBankWrBursts::8            54766                       # Per bank write bursts
system.mem_ctrls0.perBankWrBursts::9            54817                       # Per bank write bursts
system.mem_ctrls0.perBankWrBursts::10           54736                       # Per bank write bursts
system.mem_ctrls0.perBankWrBursts::11           54596                       # Per bank write bursts
system.mem_ctrls0.perBankWrBursts::12           54799                       # Per bank write bursts
system.mem_ctrls0.perBankWrBursts::13           54542                       # Per bank write bursts
system.mem_ctrls0.perBankWrBursts::14           54383                       # Per bank write bursts
system.mem_ctrls0.perBankWrBursts::15           54476                       # Per bank write bursts
system.mem_ctrls0.numRdRetry                        0                       # Number of times read queue was full causing retry
system.mem_ctrls0.numWrRetry                        0                       # Number of times write queue was full causing retry
system.mem_ctrls0.totGap                 1283018603760                       # Total gap between requests
system.mem_ctrls0.readPktSize::0                    0                       # Read request sizes (log2)
system.mem_ctrls0.readPktSize::1                    0                       # Read request sizes (log2)
system.mem_ctrls0.readPktSize::2                    0                       # Read request sizes (log2)
system.mem_ctrls0.readPktSize::3                    0                       # Read request sizes (log2)
system.mem_ctrls0.readPktSize::4                    0                       # Read request sizes (log2)
system.mem_ctrls0.readPktSize::5                    0                       # Read request sizes (log2)
system.mem_ctrls0.readPktSize::6              2193446                       # Read request sizes (log2)
system.mem_ctrls0.writePktSize::0                   0                       # Write request sizes (log2)
system.mem_ctrls0.writePktSize::1                   0                       # Write request sizes (log2)
system.mem_ctrls0.writePktSize::2                   0                       # Write request sizes (log2)
system.mem_ctrls0.writePktSize::3                   0                       # Write request sizes (log2)
system.mem_ctrls0.writePktSize::4                   0                       # Write request sizes (log2)
system.mem_ctrls0.writePktSize::5                   0                       # Write request sizes (log2)
system.mem_ctrls0.writePktSize::6              874311                       # Write request sizes (log2)
system.mem_ctrls0.rdQLenPdf::0                2103663                       # What read queue length does an incoming req see
system.mem_ctrls0.rdQLenPdf::1                  74285                       # What read queue length does an incoming req see
system.mem_ctrls0.rdQLenPdf::2                  13764                       # What read queue length does an incoming req see
system.mem_ctrls0.rdQLenPdf::3                   1712                       # What read queue length does an incoming req see
system.mem_ctrls0.rdQLenPdf::4                      0                       # What read queue length does an incoming req see
system.mem_ctrls0.rdQLenPdf::5                      0                       # What read queue length does an incoming req see
system.mem_ctrls0.rdQLenPdf::6                      0                       # What read queue length does an incoming req see
system.mem_ctrls0.rdQLenPdf::7                      0                       # What read queue length does an incoming req see
system.mem_ctrls0.rdQLenPdf::8                      0                       # What read queue length does an incoming req see
system.mem_ctrls0.rdQLenPdf::9                      0                       # What read queue length does an incoming req see
system.mem_ctrls0.rdQLenPdf::10                     0                       # What read queue length does an incoming req see
system.mem_ctrls0.rdQLenPdf::11                     0                       # What read queue length does an incoming req see
system.mem_ctrls0.rdQLenPdf::12                     0                       # What read queue length does an incoming req see
system.mem_ctrls0.rdQLenPdf::13                     0                       # What read queue length does an incoming req see
system.mem_ctrls0.rdQLenPdf::14                     0                       # What read queue length does an incoming req see
system.mem_ctrls0.rdQLenPdf::15                     0                       # What read queue length does an incoming req see
system.mem_ctrls0.rdQLenPdf::16                     0                       # What read queue length does an incoming req see
system.mem_ctrls0.rdQLenPdf::17                     0                       # What read queue length does an incoming req see
system.mem_ctrls0.rdQLenPdf::18                     0                       # What read queue length does an incoming req see
system.mem_ctrls0.rdQLenPdf::19                     0                       # What read queue length does an incoming req see
system.mem_ctrls0.rdQLenPdf::20                     0                       # What read queue length does an incoming req see
system.mem_ctrls0.rdQLenPdf::21                     0                       # What read queue length does an incoming req see
system.mem_ctrls0.rdQLenPdf::22                     0                       # What read queue length does an incoming req see
system.mem_ctrls0.rdQLenPdf::23                     0                       # What read queue length does an incoming req see
system.mem_ctrls0.rdQLenPdf::24                     0                       # What read queue length does an incoming req see
system.mem_ctrls0.rdQLenPdf::25                     0                       # What read queue length does an incoming req see
system.mem_ctrls0.rdQLenPdf::26                     0                       # What read queue length does an incoming req see
system.mem_ctrls0.rdQLenPdf::27                     0                       # What read queue length does an incoming req see
system.mem_ctrls0.rdQLenPdf::28                     0                       # What read queue length does an incoming req see
system.mem_ctrls0.rdQLenPdf::29                     0                       # What read queue length does an incoming req see
system.mem_ctrls0.rdQLenPdf::30                     0                       # What read queue length does an incoming req see
system.mem_ctrls0.rdQLenPdf::31                     0                       # What read queue length does an incoming req see
system.mem_ctrls0.wrQLenPdf::0                      2                       # What write queue length does an incoming req see
system.mem_ctrls0.wrQLenPdf::1                      2                       # What write queue length does an incoming req see
system.mem_ctrls0.wrQLenPdf::2                      2                       # What write queue length does an incoming req see
system.mem_ctrls0.wrQLenPdf::3                      2                       # What write queue length does an incoming req see
system.mem_ctrls0.wrQLenPdf::4                      2                       # What write queue length does an incoming req see
system.mem_ctrls0.wrQLenPdf::5                      2                       # What write queue length does an incoming req see
system.mem_ctrls0.wrQLenPdf::6                      2                       # What write queue length does an incoming req see
system.mem_ctrls0.wrQLenPdf::7                      2                       # What write queue length does an incoming req see
system.mem_ctrls0.wrQLenPdf::8                      2                       # What write queue length does an incoming req see
system.mem_ctrls0.wrQLenPdf::9                      2                       # What write queue length does an incoming req see
system.mem_ctrls0.wrQLenPdf::10                     2                       # What write queue length does an incoming req see
system.mem_ctrls0.wrQLenPdf::11                     2                       # What write queue length does an incoming req see
system.mem_ctrls0.wrQLenPdf::12                     2                       # What write queue length does an incoming req see
system.mem_ctrls0.wrQLenPdf::13                     2                       # What write queue length does an incoming req see
system.mem_ctrls0.wrQLenPdf::14                     2                       # What write queue length does an incoming req see
system.mem_ctrls0.wrQLenPdf::15                 35278                       # What write queue length does an incoming req see
system.mem_ctrls0.wrQLenPdf::16                 36111                       # What write queue length does an incoming req see
system.mem_ctrls0.wrQLenPdf::17                 48957                       # What write queue length does an incoming req see
system.mem_ctrls0.wrQLenPdf::18                 50052                       # What write queue length does an incoming req see
system.mem_ctrls0.wrQLenPdf::19                 50178                       # What write queue length does an incoming req see
system.mem_ctrls0.wrQLenPdf::20                 50156                       # What write queue length does an incoming req see
system.mem_ctrls0.wrQLenPdf::21                 50181                       # What write queue length does an incoming req see
system.mem_ctrls0.wrQLenPdf::22                 50158                       # What write queue length does an incoming req see
system.mem_ctrls0.wrQLenPdf::23                 50167                       # What write queue length does an incoming req see
system.mem_ctrls0.wrQLenPdf::24                 50148                       # What write queue length does an incoming req see
system.mem_ctrls0.wrQLenPdf::25                 50169                       # What write queue length does an incoming req see
system.mem_ctrls0.wrQLenPdf::26                 50180                       # What write queue length does an incoming req see
system.mem_ctrls0.wrQLenPdf::27                 50331                       # What write queue length does an incoming req see
system.mem_ctrls0.wrQLenPdf::28                 50507                       # What write queue length does an incoming req see
system.mem_ctrls0.wrQLenPdf::29                 50902                       # What write queue length does an incoming req see
system.mem_ctrls0.wrQLenPdf::30                 50496                       # What write queue length does an incoming req see
system.mem_ctrls0.wrQLenPdf::31                 50169                       # What write queue length does an incoming req see
system.mem_ctrls0.wrQLenPdf::32                 50117                       # What write queue length does an incoming req see
system.mem_ctrls0.wrQLenPdf::33                    22                       # What write queue length does an incoming req see
system.mem_ctrls0.wrQLenPdf::34                     2                       # What write queue length does an incoming req see
system.mem_ctrls0.wrQLenPdf::35                     0                       # What write queue length does an incoming req see
system.mem_ctrls0.wrQLenPdf::36                     0                       # What write queue length does an incoming req see
system.mem_ctrls0.wrQLenPdf::37                     0                       # What write queue length does an incoming req see
system.mem_ctrls0.wrQLenPdf::38                     0                       # What write queue length does an incoming req see
system.mem_ctrls0.wrQLenPdf::39                     0                       # What write queue length does an incoming req see
system.mem_ctrls0.wrQLenPdf::40                     0                       # What write queue length does an incoming req see
system.mem_ctrls0.wrQLenPdf::41                     0                       # What write queue length does an incoming req see
system.mem_ctrls0.wrQLenPdf::42                     0                       # What write queue length does an incoming req see
system.mem_ctrls0.wrQLenPdf::43                     0                       # What write queue length does an incoming req see
system.mem_ctrls0.wrQLenPdf::44                     0                       # What write queue length does an incoming req see
system.mem_ctrls0.wrQLenPdf::45                     0                       # What write queue length does an incoming req see
system.mem_ctrls0.wrQLenPdf::46                     0                       # What write queue length does an incoming req see
system.mem_ctrls0.wrQLenPdf::47                     0                       # What write queue length does an incoming req see
system.mem_ctrls0.wrQLenPdf::48                     0                       # What write queue length does an incoming req see
system.mem_ctrls0.wrQLenPdf::49                     0                       # What write queue length does an incoming req see
system.mem_ctrls0.wrQLenPdf::50                     0                       # What write queue length does an incoming req see
system.mem_ctrls0.wrQLenPdf::51                     0                       # What write queue length does an incoming req see
system.mem_ctrls0.wrQLenPdf::52                     0                       # What write queue length does an incoming req see
system.mem_ctrls0.wrQLenPdf::53                     0                       # What write queue length does an incoming req see
system.mem_ctrls0.wrQLenPdf::54                     0                       # What write queue length does an incoming req see
system.mem_ctrls0.wrQLenPdf::55                     0                       # What write queue length does an incoming req see
system.mem_ctrls0.wrQLenPdf::56                     0                       # What write queue length does an incoming req see
system.mem_ctrls0.wrQLenPdf::57                     0                       # What write queue length does an incoming req see
system.mem_ctrls0.wrQLenPdf::58                     0                       # What write queue length does an incoming req see
system.mem_ctrls0.wrQLenPdf::59                     0                       # What write queue length does an incoming req see
system.mem_ctrls0.wrQLenPdf::60                     0                       # What write queue length does an incoming req see
system.mem_ctrls0.wrQLenPdf::61                     0                       # What write queue length does an incoming req see
system.mem_ctrls0.wrQLenPdf::62                     0                       # What write queue length does an incoming req see
system.mem_ctrls0.wrQLenPdf::63                     0                       # What write queue length does an incoming req see
system.mem_ctrls0.bytesPerActivate::samples      1960809                       # Bytes accessed per row activation
system.mem_ctrls0.bytesPerActivate::mean   100.128696                       # Bytes accessed per row activation
system.mem_ctrls0.bytesPerActivate::gmean    81.659106                       # Bytes accessed per row activation
system.mem_ctrls0.bytesPerActivate::stdev    93.841585                       # Bytes accessed per row activation
system.mem_ctrls0.bytesPerActivate::0-127      1553452     79.23%     79.23% # Bytes accessed per row activation
system.mem_ctrls0.bytesPerActivate::128-255       247643     12.63%     91.85% # Bytes accessed per row activation
system.mem_ctrls0.bytesPerActivate::256-383        74768      3.81%     95.67% # Bytes accessed per row activation
system.mem_ctrls0.bytesPerActivate::384-511        36364      1.85%     97.52% # Bytes accessed per row activation
system.mem_ctrls0.bytesPerActivate::512-639        47877      2.44%     99.96% # Bytes accessed per row activation
system.mem_ctrls0.bytesPerActivate::640-767          504      0.03%     99.99% # Bytes accessed per row activation
system.mem_ctrls0.bytesPerActivate::768-895           96      0.00%     99.99% # Bytes accessed per row activation
system.mem_ctrls0.bytesPerActivate::896-1023           43      0.00%    100.00% # Bytes accessed per row activation
system.mem_ctrls0.bytesPerActivate::1024-1151           62      0.00%    100.00% # Bytes accessed per row activation
system.mem_ctrls0.bytesPerActivate::total      1960809                       # Bytes accessed per row activation
system.mem_ctrls0.rdPerTurnAround::samples        50066                       # Reads before turning the bus around for writes
system.mem_ctrls0.rdPerTurnAround::mean     43.810630                       # Reads before turning the bus around for writes
system.mem_ctrls0.rdPerTurnAround::gmean    41.649918                       # Reads before turning the bus around for writes
system.mem_ctrls0.rdPerTurnAround::stdev   140.745666                       # Reads before turning the bus around for writes
system.mem_ctrls0.rdPerTurnAround::0-1023        50065    100.00%    100.00% # Reads before turning the bus around for writes
system.mem_ctrls0.rdPerTurnAround::30720-31743            1      0.00%    100.00% # Reads before turning the bus around for writes
system.mem_ctrls0.rdPerTurnAround::total        50066                       # Reads before turning the bus around for writes
system.mem_ctrls0.wrPerTurnAround::samples        50066                       # Writes before turning the bus around for reads
system.mem_ctrls0.wrPerTurnAround::mean     17.462789                       # Writes before turning the bus around for reads
system.mem_ctrls0.wrPerTurnAround::gmean    17.436553                       # Writes before turning the bus around for reads
system.mem_ctrls0.wrPerTurnAround::stdev     0.944618                       # Writes before turning the bus around for reads
system.mem_ctrls0.wrPerTurnAround::16           14028     28.02%     28.02% # Writes before turning the bus around for reads
system.mem_ctrls0.wrPerTurnAround::17             685      1.37%     29.39% # Writes before turning the bus around for reads
system.mem_ctrls0.wrPerTurnAround::18           33652     67.22%     96.60% # Writes before turning the bus around for reads
system.mem_ctrls0.wrPerTurnAround::19            1585      3.17%     99.77% # Writes before turning the bus around for reads
system.mem_ctrls0.wrPerTurnAround::20             101      0.20%     99.97% # Writes before turning the bus around for reads
system.mem_ctrls0.wrPerTurnAround::21              12      0.02%     99.99% # Writes before turning the bus around for reads
system.mem_ctrls0.wrPerTurnAround::22               2      0.00%    100.00% # Writes before turning the bus around for reads
system.mem_ctrls0.wrPerTurnAround::32               1      0.00%    100.00% # Writes before turning the bus around for reads
system.mem_ctrls0.wrPerTurnAround::total        50066                       # Writes before turning the bus around for reads
system.mem_ctrls0.totQLat                 58152976879                       # Total ticks spent queuing
system.mem_ctrls0.totMemAccLat            99279676879                       # Total ticks spent from burst creation until serviced by the DRAM
system.mem_ctrls0.totBusLat               10967120000                       # Total ticks spent in databus transfers
system.mem_ctrls0.avgQLat                    26512.42                       # Average queueing delay per DRAM burst
system.mem_ctrls0.avgBusLat                   5000.00                       # Average bus latency per DRAM burst
system.mem_ctrls0.avgMemAccLat               45262.42                       # Average memory access latency per DRAM burst
system.mem_ctrls0.avgRdBW                      109.41                       # Average DRAM read bandwidth in MiByte/s
system.mem_ctrls0.avgWrBW                       43.61                       # Average achieved write bandwidth in MiByte/s
system.mem_ctrls0.avgRdBWSys                   109.41                       # Average system read bandwidth in MiByte/s
system.mem_ctrls0.avgWrBWSys                    43.61                       # Average system write bandwidth in MiByte/s
system.mem_ctrls0.peakBW                     12800.00                       # Theoretical peak bandwidth in MiByte/s
system.mem_ctrls0.busUtil                        1.20                       # Data bus utilization in percentage
system.mem_ctrls0.busUtilRead                    0.85                       # Data bus utilization in percentage for reads
system.mem_ctrls0.busUtilWrite                   0.34                       # Data bus utilization in percentage for writes
system.mem_ctrls0.avgRdQLen                      1.02                       # Average read queue length when enqueuing
system.mem_ctrls0.avgWrQLen                     24.32                       # Average write queue length when enqueuing
system.mem_ctrls0.readRowHits                  913424                       # Number of row buffer hits during reads
system.mem_ctrls0.writeRowHits                 193475                       # Number of row buffer hits during writes
system.mem_ctrls0.readRowHitRate                41.64                       # Row buffer hit rate for reads
system.mem_ctrls0.writeRowHitRate               22.13                       # Row buffer hit rate for writes
system.mem_ctrls0.avgGap                    418226.93                       # Average gap between requests
system.mem_ctrls0.pageHitRate                   36.08                       # Row buffer hit rate, read and write combined
system.mem_ctrls0_0.actEnergy              6998299560                       # Energy for activate commands per rank (pJ)
system.mem_ctrls0_0.preEnergy              3719669250                       # Energy for precharge commands per rank (pJ)
system.mem_ctrls0_0.readEnergy             7835443140                       # Energy for read commands per rank (pJ)
system.mem_ctrls0_0.writeEnergy            2282063940                       # Energy for write commands per rank (pJ)
system.mem_ctrls0_0.refreshEnergy        101722920000.000015                       # Energy for refresh commands per rank (pJ)
system.mem_ctrls0_0.actBackEnergy         61330158900                       # Energy for active background per rank (pJ)
system.mem_ctrls0_0.preBackEnergy          3387451680                       # Energy for precharge background per rank (pJ)
system.mem_ctrls0_0.actPowerDownEnergy   368972547630                       # Energy for active power-down per rank (pJ)
system.mem_ctrls0_0.prePowerDownEnergy    92753272320                       # Energy for precharge power-down per rank (pJ)
system.mem_ctrls0_0.selfRefreshEnergy     28573832100                       # Energy for self refresh per rank (pJ)
system.mem_ctrls0_0.totalEnergy          677596530660                       # Total energy per rank (pJ)
system.mem_ctrls0_0.averagePower           528.126791                       # Core power per rank (mW)
system.mem_ctrls0_0.totalIdleTime        1139666431980                       # Total Idle time Per DRAM Rank
system.mem_ctrls0_0.memoryStateTime::IDLE   4365242209                       # Time in different power states
system.mem_ctrls0_0.memoryStateTime::REF  43110712000                       # Time in different power states
system.mem_ctrls0_0.memoryStateTime::SREF  88959458100                       # Time in different power states
system.mem_ctrls0_0.memoryStateTime::PRE_PDN 241556199163                       # Time in different power states
system.mem_ctrls0_0.memoryStateTime::ACT  95876270851                       # Time in different power states
system.mem_ctrls0_0.memoryStateTime::ACT_PDN 809150774717                       # Time in different power states
system.mem_ctrls0_1.actEnergy              7001933820                       # Energy for activate commands per rank (pJ)
system.mem_ctrls0_1.preEnergy              3721600905                       # Energy for precharge commands per rank (pJ)
system.mem_ctrls0_1.readEnergy             7825604220                       # Energy for read commands per rank (pJ)
system.mem_ctrls0_1.writeEnergy            2281740300                       # Energy for write commands per rank (pJ)
system.mem_ctrls0_1.refreshEnergy        101723534640.000015                       # Energy for refresh commands per rank (pJ)
system.mem_ctrls0_1.actBackEnergy         61256862600                       # Energy for active background per rank (pJ)
system.mem_ctrls0_1.preBackEnergy          3401126880                       # Energy for precharge background per rank (pJ)
system.mem_ctrls0_1.actPowerDownEnergy   367929621480                       # Energy for active power-down per rank (pJ)
system.mem_ctrls0_1.prePowerDownEnergy    93091728960                       # Energy for precharge power-down per rank (pJ)
system.mem_ctrls0_1.selfRefreshEnergy     29057756685                       # Energy for self refresh per rank (pJ)
system.mem_ctrls0_1.totalEnergy          677311221000                       # Total energy per rank (pJ)
system.mem_ctrls0_1.averagePower           527.904415                       # Core power per rank (mW)
system.mem_ctrls0_1.totalIdleTime        1139796151102                       # Total Idle time Per DRAM Rank
system.mem_ctrls0_1.memoryStateTime::IDLE   4402411564                       # Time in different power states
system.mem_ctrls0_1.memoryStateTime::REF  43111860000                       # Time in different power states
system.mem_ctrls0_1.memoryStateTime::SREF  90492886695                       # Time in different power states
system.mem_ctrls0_1.memoryStateTime::PRE_PDN 242426151071                       # Time in different power states
system.mem_ctrls0_1.memoryStateTime::ACT  95708234374                       # Time in different power states
system.mem_ctrls0_1.memoryStateTime::ACT_PDN 806877113336                       # Time in different power states
system.mem_ctrls1.pwrStateResidencyTicks::UNDEFINED 118517715089226                       # Cumulative time (in ticks) in various power states
system.mem_ctrls1.bytes_read::cpu.inst             64                       # Number of bytes read from this memory
system.mem_ctrls1.bytes_read::switch_cpus.inst        22464                       # Number of bytes read from this memory
system.mem_ctrls1.bytes_read::switch_cpus.data    118813824                       # Number of bytes read from this memory
system.mem_ctrls1.bytes_read::switch_cpus_1.inst          320                       # Number of bytes read from this memory
system.mem_ctrls1.bytes_read::switch_cpus_1.data     21549056                       # Number of bytes read from this memory
system.mem_ctrls1.bytes_read::total         140385728                       # Number of bytes read from this memory
system.mem_ctrls1.bytes_inst_read::cpu.inst           64                       # Number of instructions bytes read from this memory
system.mem_ctrls1.bytes_inst_read::switch_cpus.inst        22464                       # Number of instructions bytes read from this memory
system.mem_ctrls1.bytes_inst_read::switch_cpus_1.inst          320                       # Number of instructions bytes read from this memory
system.mem_ctrls1.bytes_inst_read::total        22848                       # Number of instructions bytes read from this memory
system.mem_ctrls1.bytes_written::writebacks     55949248                       # Number of bytes written to this memory
system.mem_ctrls1.bytes_written::total       55949248                       # Number of bytes written to this memory
system.mem_ctrls1.num_reads::cpu.inst               1                       # Number of read requests responded to by this memory
system.mem_ctrls1.num_reads::switch_cpus.inst          351                       # Number of read requests responded to by this memory
system.mem_ctrls1.num_reads::switch_cpus.data      1856466                       # Number of read requests responded to by this memory
system.mem_ctrls1.num_reads::switch_cpus_1.inst            5                       # Number of read requests responded to by this memory
system.mem_ctrls1.num_reads::switch_cpus_1.data       336704                       # Number of read requests responded to by this memory
system.mem_ctrls1.num_reads::total            2193527                       # Number of read requests responded to by this memory
system.mem_ctrls1.num_writes::writebacks       874207                       # Number of write requests responded to by this memory
system.mem_ctrls1.num_writes::total            874207                       # Number of write requests responded to by this memory
system.mem_ctrls1.bw_read::cpu.inst                50                       # Total read bandwidth from this memory (bytes/s)
system.mem_ctrls1.bw_read::switch_cpus.inst        17509                       # Total read bandwidth from this memory (bytes/s)
system.mem_ctrls1.bw_read::switch_cpus.data     92604907                       # Total read bandwidth from this memory (bytes/s)
system.mem_ctrls1.bw_read::switch_cpus_1.inst          249                       # Total read bandwidth from this memory (bytes/s)
system.mem_ctrls1.bw_read::switch_cpus_1.data     16795591                       # Total read bandwidth from this memory (bytes/s)
system.mem_ctrls1.bw_read::total            109418306                       # Total read bandwidth from this memory (bytes/s)
system.mem_ctrls1.bw_inst_read::cpu.inst           50                       # Instruction read bandwidth from this memory (bytes/s)
system.mem_ctrls1.bw_inst_read::switch_cpus.inst        17509                       # Instruction read bandwidth from this memory (bytes/s)
system.mem_ctrls1.bw_inst_read::switch_cpus_1.inst          249                       # Instruction read bandwidth from this memory (bytes/s)
system.mem_ctrls1.bw_inst_read::total           17808                       # Instruction read bandwidth from this memory (bytes/s)
system.mem_ctrls1.bw_write::writebacks       43607509                       # Write bandwidth from this memory (bytes/s)
system.mem_ctrls1.bw_write::total            43607509                       # Write bandwidth from this memory (bytes/s)
system.mem_ctrls1.bw_total::writebacks       43607509                       # Total bandwidth to/from this memory (bytes/s)
system.mem_ctrls1.bw_total::cpu.inst               50                       # Total bandwidth to/from this memory (bytes/s)
system.mem_ctrls1.bw_total::switch_cpus.inst        17509                       # Total bandwidth to/from this memory (bytes/s)
system.mem_ctrls1.bw_total::switch_cpus.data     92604907                       # Total bandwidth to/from this memory (bytes/s)
system.mem_ctrls1.bw_total::switch_cpus_1.inst          249                       # Total bandwidth to/from this memory (bytes/s)
system.mem_ctrls1.bw_total::switch_cpus_1.data     16795591                       # Total bandwidth to/from this memory (bytes/s)
system.mem_ctrls1.bw_total::total           153025815                       # Total bandwidth to/from this memory (bytes/s)
system.mem_ctrls1.readReqs                    2193527                       # Number of read requests accepted
system.mem_ctrls1.writeReqs                    874207                       # Number of write requests accepted
system.mem_ctrls1.readBursts                  2193527                       # Number of DRAM read bursts, including those serviced by the write queue
system.mem_ctrls1.writeBursts                  874207                       # Number of DRAM write bursts, including those merged in the write queue
system.mem_ctrls1.bytesReadDRAM             140383680                       # Total number of bytes read from DRAM
system.mem_ctrls1.bytesReadWrQ                   2048                       # Total number of bytes read from write queue
system.mem_ctrls1.bytesWritten               55947840                       # Total number of bytes written to DRAM
system.mem_ctrls1.bytesReadSys              140385728                       # Total read bytes from the system interface side
system.mem_ctrls1.bytesWrittenSys            55949248                       # Total written bytes from the system interface side
system.mem_ctrls1.servicedByWrQ                    32                       # Number of DRAM read bursts serviced by the write queue
system.mem_ctrls1.mergedWrBursts                    0                       # Number of DRAM write bursts merged with an existing one
system.mem_ctrls1.neitherReadNorWriteReqs            0                       # Number of requests that are neither read nor write
system.mem_ctrls1.perBankRdBursts::0           136649                       # Per bank write bursts
system.mem_ctrls1.perBankRdBursts::1           137329                       # Per bank write bursts
system.mem_ctrls1.perBankRdBursts::2           137426                       # Per bank write bursts
system.mem_ctrls1.perBankRdBursts::3           136760                       # Per bank write bursts
system.mem_ctrls1.perBankRdBursts::4           137850                       # Per bank write bursts
system.mem_ctrls1.perBankRdBursts::5           136978                       # Per bank write bursts
system.mem_ctrls1.perBankRdBursts::6           137667                       # Per bank write bursts
system.mem_ctrls1.perBankRdBursts::7           136630                       # Per bank write bursts
system.mem_ctrls1.perBankRdBursts::8           136999                       # Per bank write bursts
system.mem_ctrls1.perBankRdBursts::9           137656                       # Per bank write bursts
system.mem_ctrls1.perBankRdBursts::10          136799                       # Per bank write bursts
system.mem_ctrls1.perBankRdBursts::11          137483                       # Per bank write bursts
system.mem_ctrls1.perBankRdBursts::12          137103                       # Per bank write bursts
system.mem_ctrls1.perBankRdBursts::13          136258                       # Per bank write bursts
system.mem_ctrls1.perBankRdBursts::14          136897                       # Per bank write bursts
system.mem_ctrls1.perBankRdBursts::15          137011                       # Per bank write bursts
system.mem_ctrls1.perBankWrBursts::0            54522                       # Per bank write bursts
system.mem_ctrls1.perBankWrBursts::1            54331                       # Per bank write bursts
system.mem_ctrls1.perBankWrBursts::2            54662                       # Per bank write bursts
system.mem_ctrls1.perBankWrBursts::3            54666                       # Per bank write bursts
system.mem_ctrls1.perBankWrBursts::4            54593                       # Per bank write bursts
system.mem_ctrls1.perBankWrBursts::5            54582                       # Per bank write bursts
system.mem_ctrls1.perBankWrBursts::6            55229                       # Per bank write bursts
system.mem_ctrls1.perBankWrBursts::7            54477                       # Per bank write bursts
system.mem_ctrls1.perBankWrBursts::8            54725                       # Per bank write bursts
system.mem_ctrls1.perBankWrBursts::9            54988                       # Per bank write bursts
system.mem_ctrls1.perBankWrBursts::10           54605                       # Per bank write bursts
system.mem_ctrls1.perBankWrBursts::11           54592                       # Per bank write bursts
system.mem_ctrls1.perBankWrBursts::12           54698                       # Per bank write bursts
system.mem_ctrls1.perBankWrBursts::13           54569                       # Per bank write bursts
system.mem_ctrls1.perBankWrBursts::14           54520                       # Per bank write bursts
system.mem_ctrls1.perBankWrBursts::15           54426                       # Per bank write bursts
system.mem_ctrls1.numRdRetry                        0                       # Number of times read queue was full causing retry
system.mem_ctrls1.numWrRetry                        0                       # Number of times write queue was full causing retry
system.mem_ctrls1.totGap                 1283018421609                       # Total gap between requests
system.mem_ctrls1.readPktSize::0                    0                       # Read request sizes (log2)
system.mem_ctrls1.readPktSize::1                    0                       # Read request sizes (log2)
system.mem_ctrls1.readPktSize::2                    0                       # Read request sizes (log2)
system.mem_ctrls1.readPktSize::3                    0                       # Read request sizes (log2)
system.mem_ctrls1.readPktSize::4                    0                       # Read request sizes (log2)
system.mem_ctrls1.readPktSize::5                    0                       # Read request sizes (log2)
system.mem_ctrls1.readPktSize::6              2193527                       # Read request sizes (log2)
system.mem_ctrls1.writePktSize::0                   0                       # Write request sizes (log2)
system.mem_ctrls1.writePktSize::1                   0                       # Write request sizes (log2)
system.mem_ctrls1.writePktSize::2                   0                       # Write request sizes (log2)
system.mem_ctrls1.writePktSize::3                   0                       # Write request sizes (log2)
system.mem_ctrls1.writePktSize::4                   0                       # Write request sizes (log2)
system.mem_ctrls1.writePktSize::5                   0                       # Write request sizes (log2)
system.mem_ctrls1.writePktSize::6              874207                       # Write request sizes (log2)
system.mem_ctrls1.rdQLenPdf::0                2103801                       # What read queue length does an incoming req see
system.mem_ctrls1.rdQLenPdf::1                  74282                       # What read queue length does an incoming req see
system.mem_ctrls1.rdQLenPdf::2                  13682                       # What read queue length does an incoming req see
system.mem_ctrls1.rdQLenPdf::3                   1730                       # What read queue length does an incoming req see
system.mem_ctrls1.rdQLenPdf::4                      0                       # What read queue length does an incoming req see
system.mem_ctrls1.rdQLenPdf::5                      0                       # What read queue length does an incoming req see
system.mem_ctrls1.rdQLenPdf::6                      0                       # What read queue length does an incoming req see
system.mem_ctrls1.rdQLenPdf::7                      0                       # What read queue length does an incoming req see
system.mem_ctrls1.rdQLenPdf::8                      0                       # What read queue length does an incoming req see
system.mem_ctrls1.rdQLenPdf::9                      0                       # What read queue length does an incoming req see
system.mem_ctrls1.rdQLenPdf::10                     0                       # What read queue length does an incoming req see
system.mem_ctrls1.rdQLenPdf::11                     0                       # What read queue length does an incoming req see
system.mem_ctrls1.rdQLenPdf::12                     0                       # What read queue length does an incoming req see
system.mem_ctrls1.rdQLenPdf::13                     0                       # What read queue length does an incoming req see
system.mem_ctrls1.rdQLenPdf::14                     0                       # What read queue length does an incoming req see
system.mem_ctrls1.rdQLenPdf::15                     0                       # What read queue length does an incoming req see
system.mem_ctrls1.rdQLenPdf::16                     0                       # What read queue length does an incoming req see
system.mem_ctrls1.rdQLenPdf::17                     0                       # What read queue length does an incoming req see
system.mem_ctrls1.rdQLenPdf::18                     0                       # What read queue length does an incoming req see
system.mem_ctrls1.rdQLenPdf::19                     0                       # What read queue length does an incoming req see
system.mem_ctrls1.rdQLenPdf::20                     0                       # What read queue length does an incoming req see
system.mem_ctrls1.rdQLenPdf::21                     0                       # What read queue length does an incoming req see
system.mem_ctrls1.rdQLenPdf::22                     0                       # What read queue length does an incoming req see
system.mem_ctrls1.rdQLenPdf::23                     0                       # What read queue length does an incoming req see
system.mem_ctrls1.rdQLenPdf::24                     0                       # What read queue length does an incoming req see
system.mem_ctrls1.rdQLenPdf::25                     0                       # What read queue length does an incoming req see
system.mem_ctrls1.rdQLenPdf::26                     0                       # What read queue length does an incoming req see
system.mem_ctrls1.rdQLenPdf::27                     0                       # What read queue length does an incoming req see
system.mem_ctrls1.rdQLenPdf::28                     0                       # What read queue length does an incoming req see
system.mem_ctrls1.rdQLenPdf::29                     0                       # What read queue length does an incoming req see
system.mem_ctrls1.rdQLenPdf::30                     0                       # What read queue length does an incoming req see
system.mem_ctrls1.rdQLenPdf::31                     0                       # What read queue length does an incoming req see
system.mem_ctrls1.wrQLenPdf::0                      2                       # What write queue length does an incoming req see
system.mem_ctrls1.wrQLenPdf::1                      2                       # What write queue length does an incoming req see
system.mem_ctrls1.wrQLenPdf::2                      2                       # What write queue length does an incoming req see
system.mem_ctrls1.wrQLenPdf::3                      2                       # What write queue length does an incoming req see
system.mem_ctrls1.wrQLenPdf::4                      2                       # What write queue length does an incoming req see
system.mem_ctrls1.wrQLenPdf::5                      2                       # What write queue length does an incoming req see
system.mem_ctrls1.wrQLenPdf::6                      2                       # What write queue length does an incoming req see
system.mem_ctrls1.wrQLenPdf::7                      2                       # What write queue length does an incoming req see
system.mem_ctrls1.wrQLenPdf::8                      2                       # What write queue length does an incoming req see
system.mem_ctrls1.wrQLenPdf::9                      2                       # What write queue length does an incoming req see
system.mem_ctrls1.wrQLenPdf::10                     2                       # What write queue length does an incoming req see
system.mem_ctrls1.wrQLenPdf::11                     2                       # What write queue length does an incoming req see
system.mem_ctrls1.wrQLenPdf::12                     2                       # What write queue length does an incoming req see
system.mem_ctrls1.wrQLenPdf::13                     2                       # What write queue length does an incoming req see
system.mem_ctrls1.wrQLenPdf::14                     2                       # What write queue length does an incoming req see
system.mem_ctrls1.wrQLenPdf::15                 35270                       # What write queue length does an incoming req see
system.mem_ctrls1.wrQLenPdf::16                 36141                       # What write queue length does an incoming req see
system.mem_ctrls1.wrQLenPdf::17                 49024                       # What write queue length does an incoming req see
system.mem_ctrls1.wrQLenPdf::18                 50065                       # What write queue length does an incoming req see
system.mem_ctrls1.wrQLenPdf::19                 50161                       # What write queue length does an incoming req see
system.mem_ctrls1.wrQLenPdf::20                 50166                       # What write queue length does an incoming req see
system.mem_ctrls1.wrQLenPdf::21                 50158                       # What write queue length does an incoming req see
system.mem_ctrls1.wrQLenPdf::22                 50134                       # What write queue length does an incoming req see
system.mem_ctrls1.wrQLenPdf::23                 50141                       # What write queue length does an incoming req see
system.mem_ctrls1.wrQLenPdf::24                 50164                       # What write queue length does an incoming req see
system.mem_ctrls1.wrQLenPdf::25                 50166                       # What write queue length does an incoming req see
system.mem_ctrls1.wrQLenPdf::26                 50163                       # What write queue length does an incoming req see
system.mem_ctrls1.wrQLenPdf::27                 50313                       # What write queue length does an incoming req see
system.mem_ctrls1.wrQLenPdf::28                 50460                       # What write queue length does an incoming req see
system.mem_ctrls1.wrQLenPdf::29                 50863                       # What write queue length does an incoming req see
system.mem_ctrls1.wrQLenPdf::30                 50436                       # What write queue length does an incoming req see
system.mem_ctrls1.wrQLenPdf::31                 50201                       # What write queue length does an incoming req see
system.mem_ctrls1.wrQLenPdf::32                 50118                       # What write queue length does an incoming req see
system.mem_ctrls1.wrQLenPdf::33                    28                       # What write queue length does an incoming req see
system.mem_ctrls1.wrQLenPdf::34                     4                       # What write queue length does an incoming req see
system.mem_ctrls1.wrQLenPdf::35                     1                       # What write queue length does an incoming req see
system.mem_ctrls1.wrQLenPdf::36                     0                       # What write queue length does an incoming req see
system.mem_ctrls1.wrQLenPdf::37                     0                       # What write queue length does an incoming req see
system.mem_ctrls1.wrQLenPdf::38                     0                       # What write queue length does an incoming req see
system.mem_ctrls1.wrQLenPdf::39                     0                       # What write queue length does an incoming req see
system.mem_ctrls1.wrQLenPdf::40                     0                       # What write queue length does an incoming req see
system.mem_ctrls1.wrQLenPdf::41                     0                       # What write queue length does an incoming req see
system.mem_ctrls1.wrQLenPdf::42                     0                       # What write queue length does an incoming req see
system.mem_ctrls1.wrQLenPdf::43                     0                       # What write queue length does an incoming req see
system.mem_ctrls1.wrQLenPdf::44                     0                       # What write queue length does an incoming req see
system.mem_ctrls1.wrQLenPdf::45                     0                       # What write queue length does an incoming req see
system.mem_ctrls1.wrQLenPdf::46                     0                       # What write queue length does an incoming req see
system.mem_ctrls1.wrQLenPdf::47                     0                       # What write queue length does an incoming req see
system.mem_ctrls1.wrQLenPdf::48                     0                       # What write queue length does an incoming req see
system.mem_ctrls1.wrQLenPdf::49                     0                       # What write queue length does an incoming req see
system.mem_ctrls1.wrQLenPdf::50                     0                       # What write queue length does an incoming req see
system.mem_ctrls1.wrQLenPdf::51                     0                       # What write queue length does an incoming req see
system.mem_ctrls1.wrQLenPdf::52                     0                       # What write queue length does an incoming req see
system.mem_ctrls1.wrQLenPdf::53                     0                       # What write queue length does an incoming req see
system.mem_ctrls1.wrQLenPdf::54                     0                       # What write queue length does an incoming req see
system.mem_ctrls1.wrQLenPdf::55                     0                       # What write queue length does an incoming req see
system.mem_ctrls1.wrQLenPdf::56                     0                       # What write queue length does an incoming req see
system.mem_ctrls1.wrQLenPdf::57                     0                       # What write queue length does an incoming req see
system.mem_ctrls1.wrQLenPdf::58                     0                       # What write queue length does an incoming req see
system.mem_ctrls1.wrQLenPdf::59                     0                       # What write queue length does an incoming req see
system.mem_ctrls1.wrQLenPdf::60                     0                       # What write queue length does an incoming req see
system.mem_ctrls1.wrQLenPdf::61                     0                       # What write queue length does an incoming req see
system.mem_ctrls1.wrQLenPdf::62                     0                       # What write queue length does an incoming req see
system.mem_ctrls1.wrQLenPdf::63                     0                       # What write queue length does an incoming req see
system.mem_ctrls1.bytesPerActivate::samples      1959907                       # Bytes accessed per row activation
system.mem_ctrls1.bytesPerActivate::mean   100.173406                       # Bytes accessed per row activation
system.mem_ctrls1.bytesPerActivate::gmean    81.675764                       # Bytes accessed per row activation
system.mem_ctrls1.bytesPerActivate::stdev    93.923748                       # Bytes accessed per row activation
system.mem_ctrls1.bytesPerActivate::0-127      1552727     79.22%     79.22% # Bytes accessed per row activation
system.mem_ctrls1.bytesPerActivate::128-255       247022     12.60%     91.83% # Bytes accessed per row activation
system.mem_ctrls1.bytesPerActivate::256-383        75156      3.83%     95.66% # Bytes accessed per row activation
system.mem_ctrls1.bytesPerActivate::384-511        36237      1.85%     97.51% # Bytes accessed per row activation
system.mem_ctrls1.bytesPerActivate::512-639        48047      2.45%     99.96% # Bytes accessed per row activation
system.mem_ctrls1.bytesPerActivate::640-767          482      0.02%     99.99% # Bytes accessed per row activation
system.mem_ctrls1.bytesPerActivate::768-895          134      0.01%     99.99% # Bytes accessed per row activation
system.mem_ctrls1.bytesPerActivate::896-1023           36      0.00%    100.00% # Bytes accessed per row activation
system.mem_ctrls1.bytesPerActivate::1024-1151           66      0.00%    100.00% # Bytes accessed per row activation
system.mem_ctrls1.bytesPerActivate::total      1959907                       # Bytes accessed per row activation
system.mem_ctrls1.rdPerTurnAround::samples        50062                       # Reads before turning the bus around for writes
system.mem_ctrls1.rdPerTurnAround::mean     43.815269                       # Reads before turning the bus around for writes
system.mem_ctrls1.rdPerTurnAround::gmean    41.648008                       # Reads before turning the bus around for writes
system.mem_ctrls1.rdPerTurnAround::stdev   140.476690                       # Reads before turning the bus around for writes
system.mem_ctrls1.rdPerTurnAround::0-1023        50061    100.00%    100.00% # Reads before turning the bus around for writes
system.mem_ctrls1.rdPerTurnAround::30720-31743            1      0.00%    100.00% # Reads before turning the bus around for writes
system.mem_ctrls1.rdPerTurnAround::total        50062                       # Reads before turning the bus around for writes
system.mem_ctrls1.wrPerTurnAround::samples        50062                       # Writes before turning the bus around for reads
system.mem_ctrls1.wrPerTurnAround::mean     17.462047                       # Writes before turning the bus around for reads
system.mem_ctrls1.wrPerTurnAround::gmean    17.435964                       # Writes before turning the bus around for reads
system.mem_ctrls1.wrPerTurnAround::stdev     0.941269                       # Writes before turning the bus around for reads
system.mem_ctrls1.wrPerTurnAround::16           13993     27.95%     27.95% # Writes before turning the bus around for reads
system.mem_ctrls1.wrPerTurnAround::17             729      1.46%     29.41% # Writes before turning the bus around for reads
system.mem_ctrls1.wrPerTurnAround::18           33683     67.28%     96.69% # Writes before turning the bus around for reads
system.mem_ctrls1.wrPerTurnAround::19            1551      3.10%     99.79% # Writes before turning the bus around for reads
system.mem_ctrls1.wrPerTurnAround::20              94      0.19%     99.98% # Writes before turning the bus around for reads
system.mem_ctrls1.wrPerTurnAround::21               9      0.02%     99.99% # Writes before turning the bus around for reads
system.mem_ctrls1.wrPerTurnAround::22               2      0.00%    100.00% # Writes before turning the bus around for reads
system.mem_ctrls1.wrPerTurnAround::28               1      0.00%    100.00% # Writes before turning the bus around for reads
system.mem_ctrls1.wrPerTurnAround::total        50062                       # Writes before turning the bus around for reads
system.mem_ctrls1.totQLat                 58258483382                       # Total ticks spent queuing
system.mem_ctrls1.totMemAccLat            99386514632                       # Total ticks spent from burst creation until serviced by the DRAM
system.mem_ctrls1.totBusLat               10967475000                       # Total ticks spent in databus transfers
system.mem_ctrls1.avgQLat                    26559.66                       # Average queueing delay per DRAM burst
system.mem_ctrls1.avgBusLat                   5000.00                       # Average bus latency per DRAM burst
system.mem_ctrls1.avgMemAccLat               45309.66                       # Average memory access latency per DRAM burst
system.mem_ctrls1.avgRdBW                      109.42                       # Average DRAM read bandwidth in MiByte/s
system.mem_ctrls1.avgWrBW                       43.61                       # Average achieved write bandwidth in MiByte/s
system.mem_ctrls1.avgRdBWSys                   109.42                       # Average system read bandwidth in MiByte/s
system.mem_ctrls1.avgWrBWSys                    43.61                       # Average system write bandwidth in MiByte/s
system.mem_ctrls1.peakBW                     12800.00                       # Theoretical peak bandwidth in MiByte/s
system.mem_ctrls1.busUtil                        1.20                       # Data bus utilization in percentage
system.mem_ctrls1.busUtilRead                    0.85                       # Data bus utilization in percentage for reads
system.mem_ctrls1.busUtilWrite                   0.34                       # Data bus utilization in percentage for writes
system.mem_ctrls1.avgRdQLen                      1.02                       # Average read queue length when enqueuing
system.mem_ctrls1.avgWrQLen                     24.33                       # Average write queue length when enqueuing
system.mem_ctrls1.readRowHits                  914058                       # Number of row buffer hits during reads
system.mem_ctrls1.writeRowHits                 193700                       # Number of row buffer hits during writes
system.mem_ctrls1.readRowHitRate                41.67                       # Row buffer hit rate for reads
system.mem_ctrls1.writeRowHitRate               22.16                       # Row buffer hit rate for writes
system.mem_ctrls1.avgGap                    418230.01                       # Average gap between requests
system.mem_ctrls1.pageHitRate                   36.11                       # Row buffer hit rate, read and write combined
system.mem_ctrls1_0.actEnergy              6993537180                       # Energy for activate commands per rank (pJ)
system.mem_ctrls1_0.preEnergy              3717122805                       # Energy for precharge commands per rank (pJ)
system.mem_ctrls1_0.readEnergy             7834643460                       # Energy for read commands per rank (pJ)
system.mem_ctrls1_0.writeEnergy            2281463640                       # Energy for write commands per rank (pJ)
system.mem_ctrls1_0.refreshEnergy        101694031920.000015                       # Energy for refresh commands per rank (pJ)
system.mem_ctrls1_0.actBackEnergy         61362345090                       # Energy for active background per rank (pJ)
system.mem_ctrls1_0.preBackEnergy          3367452960                       # Energy for precharge background per rank (pJ)
system.mem_ctrls1_0.actPowerDownEnergy   369170789070                       # Energy for active power-down per rank (pJ)
system.mem_ctrls1_0.prePowerDownEnergy    92488440480                       # Energy for precharge power-down per rank (pJ)
system.mem_ctrls1_0.selfRefreshEnergy     28620575370                       # Energy for self refresh per rank (pJ)
system.mem_ctrls1_0.totalEnergy          677550824955                       # Total energy per rank (pJ)
system.mem_ctrls1_0.averagePower           528.091167                       # Core power per rank (mW)
system.mem_ctrls1_0.totalIdleTime        1139645126375                       # Total Idle time Per DRAM Rank
system.mem_ctrls1_0.memoryStateTime::IDLE   4316510341                       # Time in different power states
system.mem_ctrls1_0.memoryStateTime::REF  43098252000                       # Time in different power states
system.mem_ctrls1_0.memoryStateTime::SREF  89196835567                       # Time in different power states
system.mem_ctrls1_0.memoryStateTime::PRE_PDN 240854358159                       # Time in different power states
system.mem_ctrls1_0.memoryStateTime::ACT  95958692702                       # Time in different power states
system.mem_ctrls1_0.memoryStateTime::ACT_PDN 809594008271                       # Time in different power states
system.mem_ctrls1_1.actEnergy              7000305900                       # Energy for activate commands per rank (pJ)
system.mem_ctrls1_1.preEnergy              3720724260                       # Energy for precharge commands per rank (pJ)
system.mem_ctrls1_1.readEnergy             7826910840                       # Energy for read commands per rank (pJ)
system.mem_ctrls1_1.writeEnergy            2281782060                       # Energy for write commands per rank (pJ)
system.mem_ctrls1_1.refreshEnergy        101845848000.000015                       # Energy for refresh commands per rank (pJ)
system.mem_ctrls1_1.actBackEnergy         61325601750                       # Energy for active background per rank (pJ)
system.mem_ctrls1_1.preBackEnergy          3413707200                       # Energy for precharge background per rank (pJ)
system.mem_ctrls1_1.actPowerDownEnergy   368427432690                       # Energy for active power-down per rank (pJ)
system.mem_ctrls1_1.prePowerDownEnergy    92941004160                       # Energy for precharge power-down per rank (pJ)
system.mem_ctrls1_1.selfRefreshEnergy     28897159695                       # Energy for self refresh per rank (pJ)
system.mem_ctrls1_1.totalEnergy          677703938565                       # Total energy per rank (pJ)
system.mem_ctrls1_1.averagePower           528.210503                       # Core power per rank (mW)
system.mem_ctrls1_1.totalIdleTime        1139580731504                       # Total Idle time Per DRAM Rank
system.mem_ctrls1_1.memoryStateTime::IDLE   4439451005                       # Time in different power states
system.mem_ctrls1_1.memoryStateTime::REF  43164398000                       # Time in different power states
system.mem_ctrls1_1.memoryStateTime::SREF  89601869760                       # Time in different power states
system.mem_ctrls1_1.memoryStateTime::PRE_PDN 242030229177                       # Time in different power states
system.mem_ctrls1_1.memoryStateTime::ACT  95833971175                       # Time in different power states
system.mem_ctrls1_1.memoryStateTime::ACT_PDN 807948737923                       # Time in different power states
system.pwrStateResidencyTicks::UNDEFINED 118517715089226                       # Cumulative time (in ticks) in various power states
system.cpu.branchPred.lookups                       0                       # Number of BP lookups
system.cpu.branchPred.condPredicted                 0                       # Number of conditional branches predicted
system.cpu.branchPred.condIncorrect                 0                       # Number of conditional branches incorrect
system.cpu.branchPred.BTBLookups                    0                       # Number of BTB lookups
system.cpu.branchPred.BTBHits                       0                       # Number of BTB hits
system.cpu.branchPred.BTBCorrect                    0                       # Number of correct BTB predictions (this stat may not work properly.
system.cpu.branchPred.BTBHitPct                   nan                       # BTB Hit Percentage
system.cpu.branchPred.usedRAS                       0                       # Number of times the RAS was used to get a target.
system.cpu.branchPred.RASInCorrect                  0                       # Number of incorrect RAS predictions.
system.cpu.branchPred.indirectLookups               0                       # Number of indirect predictor lookups.
system.cpu.branchPred.indirectHits                  0                       # Number of indirect target hits.
system.cpu.branchPred.indirectMisses                0                       # Number of indirect misses.
system.cpu.branchPredindirectMispredicted            0                       # Number of mispredicted indirect branches.
system.cpu_voltage_domain.voltage                   1                       # Voltage in Volts
system.cpu_clk_domain.clock                       333                       # Clock period in ticks
system.cpu.dtb.fetch_hits                           0                       # ITB hits
system.cpu.dtb.fetch_misses                         0                       # ITB misses
system.cpu.dtb.fetch_acv                            0                       # ITB acv
system.cpu.dtb.fetch_accesses                       0                       # ITB accesses
system.cpu.dtb.read_hits                            0                       # DTB read hits
system.cpu.dtb.read_misses                          0                       # DTB read misses
system.cpu.dtb.read_acv                             0                       # DTB read access violations
system.cpu.dtb.read_accesses                        0                       # DTB read accesses
system.cpu.dtb.write_hits                           0                       # DTB write hits
system.cpu.dtb.write_misses                         0                       # DTB write misses
system.cpu.dtb.write_acv                            0                       # DTB write access violations
system.cpu.dtb.write_accesses                       0                       # DTB write accesses
system.cpu.dtb.data_hits                            0                       # DTB hits
system.cpu.dtb.data_misses                          0                       # DTB misses
system.cpu.dtb.data_acv                             0                       # DTB access violations
system.cpu.dtb.data_accesses                        0                       # DTB accesses
system.cpu.itb.fetch_hits                           3                       # ITB hits
system.cpu.itb.fetch_misses                         0                       # ITB misses
system.cpu.itb.fetch_acv                            0                       # ITB acv
system.cpu.itb.fetch_accesses                       3                       # ITB accesses
system.cpu.itb.read_hits                            0                       # DTB read hits
system.cpu.itb.read_misses                          0                       # DTB read misses
system.cpu.itb.read_acv                             0                       # DTB read access violations
system.cpu.itb.read_accesses                        0                       # DTB read accesses
system.cpu.itb.write_hits                           0                       # DTB write hits
system.cpu.itb.write_misses                         0                       # DTB write misses
system.cpu.itb.write_acv                            0                       # DTB write access violations
system.cpu.itb.write_accesses                       0                       # DTB write accesses
system.cpu.itb.data_hits                            0                       # DTB hits
system.cpu.itb.data_misses                          0                       # DTB misses
system.cpu.itb.data_acv                             0                       # DTB access violations
system.cpu.itb.data_accesses                        0                       # DTB accesses
system.cpu.workload.num_syscalls                    0                       # Number of system calls
system.cpu.pwrStateResidencyTicks::ON    1283018657040                       # Cumulative time (in ticks) in various power states
system.cpu.numCycles                              294                       # number of cpu cycles simulated
system.cpu.numWorkItemsStarted                      0                       # number of work items this cpu started
system.cpu.numWorkItemsCompleted                    0                       # number of work items this cpu completed
system.cpu.fetch.icacheStallCycles                 23                       # Number of cycles fetch is stalled on an Icache miss
system.cpu.fetch.Insts                              7                       # Number of instructions fetch has processed
system.cpu.fetch.Cycles                             1                       # Number of cycles fetch has run and was not squashing or blocked
system.cpu.fetch.SquashCycles                       3                       # Number of cycles fetch has spent squashing
system.cpu.fetch.PendingDrainCycles                 3                       # Number of cycles fetch has spent waiting on pipes to drain
system.cpu.fetch.CacheLines                         3                       # Number of cache lines fetched
system.cpu.fetch.IcacheSquashes                     2                       # Number of outstanding Icache misses that were squashed
system.cpu.fetch.rateDist::samples                 28                       # Number of instructions fetched each cycle (Total)
system.cpu.fetch.rateDist::mean              0.250000                       # Number of instructions fetched each cycle (Total)
system.cpu.fetch.rateDist::stdev             1.322876                       # Number of instructions fetched each cycle (Total)
system.cpu.fetch.rateDist::underflows               0      0.00%      0.00% # Number of instructions fetched each cycle (Total)
system.cpu.fetch.rateDist::0                       27     96.43%     96.43% # Number of instructions fetched each cycle (Total)
system.cpu.fetch.rateDist::1                        0      0.00%     96.43% # Number of instructions fetched each cycle (Total)
system.cpu.fetch.rateDist::2                        0      0.00%     96.43% # Number of instructions fetched each cycle (Total)
system.cpu.fetch.rateDist::3                        0      0.00%     96.43% # Number of instructions fetched each cycle (Total)
system.cpu.fetch.rateDist::4                        0      0.00%     96.43% # Number of instructions fetched each cycle (Total)
system.cpu.fetch.rateDist::5                        0      0.00%     96.43% # Number of instructions fetched each cycle (Total)
system.cpu.fetch.rateDist::6                        0      0.00%     96.43% # Number of instructions fetched each cycle (Total)
system.cpu.fetch.rateDist::7                        1      3.57%    100.00% # Number of instructions fetched each cycle (Total)
system.cpu.fetch.rateDist::8                        0      0.00%    100.00% # Number of instructions fetched each cycle (Total)
system.cpu.fetch.rateDist::overflows                0      0.00%    100.00% # Number of instructions fetched each cycle (Total)
system.cpu.fetch.rateDist::min_value                0                       # Number of instructions fetched each cycle (Total)
system.cpu.fetch.rateDist::max_value                7                       # Number of instructions fetched each cycle (Total)
system.cpu.fetch.rateDist::total                   28                       # Number of instructions fetched each cycle (Total)
[...]
system.switch_cpus_1.iq.fu_busy_rate         0.124753                       # FU busy rate (busy events/executed inst)
system.switch_cpus_1.iq.int_inst_queue_reads    351924530                       # Number of integer instruction queue reads
system.switch_cpus_1.iq.int_inst_queue_writes     88301016                       # Number of integer instruction queue writes
system.switch_cpus_1.iq.int_inst_queue_wakeup_accesses     82014570                       # Number of integer instruction queue wakeup accesses
system.switch_cpus_1.iq.fp_inst_queue_reads    277272415                       # Number of floating instruction queue reads
system.switch_cpus_1.iq.fp_inst_queue_writes    139208325                       # Number of floating instruction queue writes
system.switch_cpus_1.iq.fp_inst_queue_wakeup_accesses    125975904                       # Number of floating instruction queue wakeup accesses
system.switch_cpus_1.iq.int_alu_accesses     84674356                       # Number of integer alu accesses
system.switch_cpus_1.iq.fp_alu_accesses     150495538                       # Number of floating point alu accesses
system.switch_cpus_1.iew.lsq.thread0.forwLoads      1410223                       # Number of loads that had data forwarded from stores
system.switch_cpus_1.iew.lsq.thread0.invAddrLoads            0                       # Number of loads ignored due to an invalid address
system.switch_cpus_1.iew.lsq.thread0.squashedLoads      3336855                       # Number of loads squashed
system.switch_cpus_1.iew.lsq.thread0.ignoredResponses           51                       # Number of memory responses ignored because the instruction is squashed
system.switch_cpus_1.iew.lsq.thread0.memOrderViolation         1760                       # Number of memory ordering violations
system.switch_cpus_1.iew.lsq.thread0.squashedStores       796018                       # Number of stores squashed
system.switch_cpus_1.iew.lsq.thread0.invAddrSwpfs            0                       # Number of software prefetches ignored due to an invalid address
system.switch_cpus_1.iew.lsq.thread0.blockedLoads            0                       # Number of blocked loads due to partial load-store forwarding
system.switch_cpus_1.iew.lsq.thread0.rescheduledLoads            0                       # Number of loads that were rescheduled
system.switch_cpus_1.iew.lsq.thread0.cacheBlocked       306661                       # Number of times an access to memory failed due to the cache being blocked
system.switch_cpus_1.iew.iewIdleCycles              0                       # Number of cycles IEW is idle
system.switch_cpus_1.iew.iewSquashCycles       140428                       # Number of cycles IEW is squashing
system.switch_cpus_1.iew.iewBlockCycles      37409149                       # Number of cycles IEW is blocking
system.switch_cpus_1.iew.iewUnblockCycles     12082138                       # Number of cycles IEW is unblocking
system.switch_cpus_1.iew.iewDispatchedInsts    213933148                       # Number of instructions dispatched to IQ
system.switch_cpus_1.iew.iewDispSquashedInsts          619                       # Number of squashed instructions skipped by dispatch
system.switch_cpus_1.iew.iewDispLoadInsts     44136904                       # Number of dispatched load instructions
system.switch_cpus_1.iew.iewDispStoreInsts     13325060                       # Number of dispatched store instructions
system.switch_cpus_1.iew.iewDispNonSpecInsts            0                       # Number of dispatched non-speculative instructions
system.switch_cpus_1.iew.iewIQFullEvents       893735                       # Number of times the IQ has become full, causing a stall
system.switch_cpus_1.iew.iewLSQFullEvents     10949066                       # Number of times the LSQ has become full, causing a stall
system.switch_cpus_1.iew.memOrderViolationEvents         1760                       # Number of memory order violations
system.switch_cpus_1.iew.predictedTakenIncorrect          549                       # Number of branches that were predicted taken incorrectly
system.switch_cpus_1.iew.predictedNotTakenIncorrect        15422                       # Number of branches that were predicted not taken incorrectly
system.switch_cpus_1.iew.branchMispredicts        15971                       # Number of branch mispredicts detected at execute
system.switch_cpus_1.iew.iewExecutedInsts    208878708                       # Number of executed instructions
system.switch_cpus_1.iew.iewExecLoadInsts     44103738                       # Number of load instructions executed
system.switch_cpus_1.iew.iewExecSquashedInsts       207109                       # Number of squashed instructions skipped in execute
system.switch_cpus_1.iew.exec_swp                   0                       # number of swp insts executed
system.switch_cpus_1.iew.exec_nop              179320                       # number of nop insts executed
system.switch_cpus_1.iew.exec_refs           57057352                       # number of memory reference insts executed
system.switch_cpus_1.iew.exec_branches        1499271                       # Number of branches executed
system.switch_cpus_1.iew.exec_stores         12953614                       # Number of stores executed
system.switch_cpus_1.iew.exec_rate           1.129559                       # Inst execution rate
system.switch_cpus_1.iew.wb_sent            208443582                       # cumulative count of insts sent to commit
system.switch_cpus_1.iew.wb_count           207990474                       # cumulative count of insts written-back
system.switch_cpus_1.iew.wb_producers       138544480                       # num instructions producing a value
system.switch_cpus_1.iew.wb_consumers       165950618                       # num instructions consuming a value
system.switch_cpus_1.iew.wb_rate             1.124756                       # insts written-back per cycle
system.switch_cpus_1.iew.wb_fanout           0.834854                       # average fanout of values written-back
system.switch_cpus_1.commit.commitSquashedInsts     11063672                       # The number of squashed insts skipped by commit
system.switch_cpus_1.commit.branchMispredicts        15475                       # The number of times a branch was mispredicted
system.switch_cpus_1.commit.committed_per_cycle::samples    183485320                       # Number of insts commited each cycle
system.switch_cpus_1.commit.committed_per_cycle::mean     1.090951                       # Number of insts commited each cycle
system.switch_cpus_1.commit.committed_per_cycle::stdev     2.539592                       # Number of insts commited each cycle
system.switch_cpus_1.commit.committed_per_cycle::underflows            0      0.00%      0.00% # Number of insts commited each cycle
system.switch_cpus_1.commit.committed_per_cycle::0    148580298     80.98%     80.98% # Number of insts commited each cycle
system.switch_cpus_1.commit.committed_per_cycle::1      3940020      2.15%     83.12% # Number of insts commited each cycle
system.switch_cpus_1.commit.committed_per_cycle::2      2990186      1.63%     84.75% # Number of insts commited each cycle
system.switch_cpus_1.commit.committed_per_cycle::3      2739857      1.49%     86.25% # Number of insts commited each cycle
system.switch_cpus_1.commit.committed_per_cycle::4      2416588      1.32%     87.56% # Number of insts commited each cycle
system.switch_cpus_1.commit.committed_per_cycle::5      2020850      1.10%     88.67% # Number of insts commited each cycle
system.switch_cpus_1.commit.committed_per_cycle::6      1372122      0.75%     89.41% # Number of insts commited each cycle
system.switch_cpus_1.commit.committed_per_cycle::7      1373033      0.75%     90.16% # Number of insts commited each cycle
system.switch_cpus_1.commit.committed_per_cycle::8     18052366      9.84%    100.00% # Number of insts commited each cycle
system.switch_cpus_1.commit.committed_per_cycle::overflows            0      0.00%    100.00% # Number of insts commited each cycle
system.switch_cpus_1.commit.committed_per_cycle::min_value            0                       # Number of insts commited each cycle
system.switch_cpus_1.commit.committed_per_cycle::max_value            8                       # Number of insts commited each cycle
system.switch_cpus_1.commit.committed_per_cycle::total    183485320                       # Number of insts commited each cycle
system.switch_cpus_1.commit.committedInsts    200173456                       # Number of instructions committed
system.switch_cpus_1.commit.committedOps    200173456                       # Number of ops (including micro ops) committed
system.switch_cpus_1.commit.swp_count               0                       # Number of s/w prefetches committed
system.switch_cpus_1.commit.refs             53329056                       # Number of memory references committed
system.switch_cpus_1.commit.loads            40800023                       # Number of loads committed
system.switch_cpus_1.commit.membars                 0                       # Number of memory barriers committed
system.switch_cpus_1.commit.branches          1403066                       # Number of branches committed
system.switch_cpus_1.commit.fp_insts        122294760                       # Number of committed floating point instructions.
system.switch_cpus_1.commit.int_insts       127004953                       # Number of committed integer instructions.
system.switch_cpus_1.commit.function_calls            7                       # Number of function calls committed.
system.switch_cpus_1.commit.op_class_0::No_OpClass       173452      0.09%      0.09% # Class of committed instruction
system.switch_cpus_1.commit.op_class_0::IntAlu     61200061     30.57%     30.66% # Class of committed instruction
system.switch_cpus_1.commit.op_class_0::IntMult            0      0.00%     30.66% # Class of committed instruction
system.switch_cpus_1.commit.op_class_0::IntDiv            0      0.00%     30.66% # Class of committed instruction
system.switch_cpus_1.commit.op_class_0::FloatAdd     35376177     17.67%     48.33% # Class of committed instruction
system.switch_cpus_1.commit.op_class_0::FloatCmp      8364224      4.18%     52.51% # Class of committed instruction
system.switch_cpus_1.commit.op_class_0::FloatCvt     12546336      6.27%     58.78% # Class of committed instruction
system.switch_cpus_1.commit.op_class_0::FloatMult     26817554     13.40%     72.18% # Class of committed instruction
system.switch_cpus_1.commit.op_class_0::FloatMultAcc            0      0.00%     72.18% # Class of committed instruction
system.switch_cpus_1.commit.op_class_0::FloatDiv      2366596      1.18%     73.36% # Class of committed instruction
system.switch_cpus_1.commit.op_class_0::FloatMisc            0      0.00%     73.36% # Class of committed instruction
system.switch_cpus_1.commit.op_class_0::FloatSqrt            0      0.00%     73.36% # Class of committed instruction
system.switch_cpus_1.commit.op_class_0::SimdAdd            0      0.00%     73.36% # Class of committed instruction
system.switch_cpus_1.commit.op_class_0::SimdAddAcc            0      0.00%     73.36% # Class of committed instruction
system.switch_cpus_1.commit.op_class_0::SimdAlu            0      0.00%     73.36% # Class of committed instruction
system.switch_cpus_1.commit.op_class_0::SimdCmp            0      0.00%     73.36% # Class of committed instruction
system.switch_cpus_1.commit.op_class_0::SimdCvt            0      0.00%     73.36% # Class of committed instruction
system.switch_cpus_1.commit.op_class_0::SimdMisc            0      0.00%     73.36% # Class of committed instruction
system.switch_cpus_1.commit.op_class_0::SimdMult            0      0.00%     73.36% # Class of committed instruction
system.switch_cpus_1.commit.op_class_0::SimdMultAcc            0      0.00%     73.36% # Class of committed instruction
system.switch_cpus_1.commit.op_class_0::SimdShift            0      0.00%     73.36% # Class of committed instruction
system.switch_cpus_1.commit.op_class_0::SimdShiftAcc            0      0.00%     73.36% # Class of committed instruction
system.switch_cpus_1.commit.op_class_0::SimdSqrt            0      0.00%     73.36% # Class of committed instruction
system.switch_cpus_1.commit.op_class_0::SimdFloatAdd            0      0.00%     73.36% # Class of committed instruction
system.switch_cpus_1.commit.op_class_0::SimdFloatAlu            0      0.00%     73.36% # Class of committed instruction
system.switch_cpus_1.commit.op_class_0::SimdFloatCmp            0      0.00%     73.36% # Class of committed instruction
system.switch_cpus_1.commit.op_class_0::SimdFloatCvt            0      0.00%     73.36% # Class of committed instruction
system.switch_cpus_1.commit.op_class_0::SimdFloatDiv            0      0.00%     73.36% # Class of committed instruction
system.switch_cpus_1.commit.op_class_0::SimdFloatMisc            0      0.00%     73.36% # Class of committed instruction
system.switch_cpus_1.commit.op_class_0::SimdFloatMult            0      0.00%     73.36% # Class of committed instruction
system.switch_cpus_1.commit.op_class_0::SimdFloatMultAcc            0      0.00%     73.36% # Class of committed instruction
system.switch_cpus_1.commit.op_class_0::SimdFloatSqrt            0      0.00%     73.36% # Class of committed instruction
system.switch_cpus_1.commit.op_class_0::MemRead     12460377      6.22%     79.58% # Class of committed instruction
system.switch_cpus_1.commit.op_class_0::MemWrite      4044806      2.02%     81.60% # Class of committed instruction
system.switch_cpus_1.commit.op_class_0::FloatMemRead     28339646     14.16%     95.76% # Class of committed instruction
system.switch_cpus_1.commit.op_class_0::FloatMemWrite      8484227      4.24%    100.00% # Class of committed instruction
system.switch_cpus_1.commit.op_class_0::IprAccess            0      0.00%    100.00% # Class of committed instruction
system.switch_cpus_1.commit.op_class_0::InstPrefetch            0      0.00%    100.00% # Class of committed instruction
system.switch_cpus_1.commit.op_class_0::total    200173456                       # Class of committed instruction
system.switch_cpus_1.commit.bw_lim_events     18052366                       # number cycles where commit BW limit reached
system.switch_cpus_1.rob.rob_reads          375064972                       # The number of ROB reads
system.switch_cpus_1.rob.rob_writes         423907615                       # The number of ROB writes
system.switch_cpus_1.timesIdled                    12                       # Number of times that the entire CPU went into an idle state and unscheduled itself
system.switch_cpus_1.idleCycles                  1986                       # Total number of cycles that the CPU has spent unscheduled due to idling
system.switch_cpus_1.committedInsts         200000004                       # Number of Instructions Simulated
system.switch_cpus_1.committedOps           200000004                       # Number of Ops (including micro ops) Simulated
system.switch_cpus_1.cpi                     0.924603                       # CPI: Cycles Per Instruction
system.switch_cpus_1.cpi_total               0.924603                       # CPI: Total CPI of All Threads
system.switch_cpus_1.ipc                     1.081546                       # IPC: Instructions Per Cycle
system.switch_cpus_1.ipc_total               1.081546                       # IPC: Total IPC of All Threads
system.switch_cpus_1.int_regfile_reads      175643649                       # number of integer regfile reads
system.switch_cpus_1.int_regfile_writes      84672610                       # number of integer regfile writes
system.switch_cpus_1.fp_regfile_reads       170480905                       # number of floating regfile reads
system.switch_cpus_1.fp_regfile_writes      108911429                       # number of floating regfile writes
system.tol3bus.snoop_filter.tot_requests      9621243                       # Total number of requests made to the snoop filter.
system.tol3bus.snoop_filter.hit_single_requests      4808416                       # Number of requests hitting in the snoop filter with a single holder of the requested data.
system.tol3bus.snoop_filter.hit_multi_requests            0                       # Number of requests hitting in the snoop filter with multiple (>1) holders of the requested data.
system.tol3bus.snoop_filter.tot_snoops         157915                       # Total number of snoops made to the snoop filter.
system.tol3bus.snoop_filter.hit_single_snoops       157915                       # Number of snoops hitting in the snoop filter with a single holder of the requested data.
system.tol3bus.snoop_filter.hit_multi_snoops            0                       # Number of snoops hitting in the snoop filter with multiple (>1) holders of the requested data.
system.tol3bus.pwrStateResidencyTicks::UNDEFINED 118517715089226                       # Cumulative time (in ticks) in various power states
system.tol3bus.trans_dist::ReadResp           4255835                       # Transaction distribution
system.tol3bus.trans_dist::WritebackDirty      3573331                       # Transaction distribution
system.tol3bus.trans_dist::CleanEvict         5607894                       # Transaction distribution
system.tol3bus.trans_dist::UpgradeReq               2                       # Transaction distribution
system.tol3bus.trans_dist::UpgradeResp              2                       # Transaction distribution
system.tol3bus.trans_dist::ReadExReq           556992                       # Transaction distribution
system.tol3bus.trans_dist::ReadExResp          556992                       # Transaction distribution
system.tol3bus.trans_dist::ReadSharedReq      4255835                       # Transaction distribution
system.tol3bus.pkt_count_system.cpu.l2.mem_side::system.l3.cpu_side     14434072                       # Packet count per connected master and slave (bytes)
system.tol3bus.pkt_size_system.cpu.l2.mem_side::system.l3.cpu_side    424808960                       # Cumulative packet size per connected master and slave (bytes)
system.tol3bus.snoops                         4372811                       # Total snoops (count)
system.tol3bus.snoopTraffic                 111905152                       # Total snoop traffic (bytes)
system.tol3bus.snoop_fanout::samples          9185640                       # Request fanout histogram
system.tol3bus.snoop_fanout::mean            0.017192                       # Request fanout histogram
system.tol3bus.snoop_fanout::stdev           0.129984                       # Request fanout histogram
system.tol3bus.snoop_fanout::underflows             0      0.00%      0.00% # Request fanout histogram
system.tol3bus.snoop_fanout::0                9027725     98.28%     98.28% # Request fanout histogram
system.tol3bus.snoop_fanout::1                 157915      1.72%    100.00% # Request fanout histogram
system.tol3bus.snoop_fanout::overflows              0      0.00%    100.00% # Request fanout histogram
system.tol3bus.snoop_fanout::min_value              0                       # Request fanout histogram
system.tol3bus.snoop_fanout::max_value              1                       # Request fanout histogram
system.tol3bus.snoop_fanout::total            9185640                       # Request fanout histogram
system.tol3bus.reqLayer0.occupancy         3811536648                       # Layer occupancy (ticks)
system.tol3bus.reqLayer0.utilization              0.3                       # Layer utilization (%)
system.tol3bus.respLayer0.occupancy        3205343448                       # Layer occupancy (ticks)
system.tol3bus.respLayer0.utilization             0.2                       # Layer utilization (%)

---------- End Simulation Statistics   ----------
