
---------- Begin Simulation Statistics ----------
sim_seconds                                  4.813841                       # Number of seconds simulated
sim_ticks                                4813840730943                       # Number of ticks simulated
final_tick                               74843813312289                       # Number of ticks from beginning of simulation (restored from checkpoints and never reset)
sim_freq                                 1000000000000                       # Frequency of simulated ticks
host_inst_rate                                  93464                       # Simulator instruction rate (inst/s)
host_op_rate                                    93464                       # Simulator op (including micro ops) rate (op/s)
host_tick_rate                              224961478                       # Simulator tick rate (ticks/s)
host_mem_usage                                2504484                       # Number of bytes of host memory used
host_seconds                                 21398.51                       # Real time elapsed on the host
sim_insts                                  2000000009                       # Number of instructions simulated
sim_ops                                    2000000009                       # Number of ops (including micro ops) simulated
system.voltage_domain.voltage                       1                       # Voltage in Volts
system.clk_domain.clock                          1000                       # Clock period in ticks
system.mem_ctrls0.pwrStateResidencyTicks::UNDEFINED 74843813312289                       # Cumulative time (in ticks) in various power states
system.mem_ctrls0.bytes_read::cpu.inst             64                       # Number of bytes read from this memory
system.mem_ctrls0.bytes_read::cpu.data            128                       # Number of bytes read from this memory
system.mem_ctrls0.bytes_read::switch_cpus.inst       150400                       # Number of bytes read from this memory
system.mem_ctrls0.bytes_read::switch_cpus.data    408031552                       # Number of bytes read from this memory
system.mem_ctrls0.bytes_read::switch_cpus_1.inst       210368                       # Number of bytes read from this memory
system.mem_ctrls0.bytes_read::switch_cpus_1.data    429021440                       # Number of bytes read from this memory
system.mem_ctrls0.bytes_read::total         837413952                       # Number of bytes read from this memory
system.mem_ctrls0.bytes_inst_read::cpu.inst           64                       # Number of instructions bytes read from this memory
system.mem_ctrls0.bytes_inst_read::switch_cpus.inst       150400                       # Number of instructions bytes read from this memory
system.mem_ctrls0.bytes_inst_read::switch_cpus_1.inst       210368                       # Number of instructions bytes read from this memory
system.mem_ctrls0.bytes_inst_read::total       360832                       # Number of instructions bytes read from this memory
system.mem_ctrls0.bytes_written::writebacks    276941888                       # Number of bytes written to this memory
system.mem_ctrls0.bytes_written::total      276941888                       # Number of bytes written to this memory
system.mem_ctrls0.num_reads::cpu.inst               1                       # Number of read requests responded to by this memory
system.mem_ctrls0.num_reads::cpu.data               2                       # Number of read requests responded to by this memory
system.mem_ctrls0.num_reads::switch_cpus.inst         2350                       # Number of read requests responded to by this memory
system.mem_ctrls0.num_reads::switch_cpus.data      6375493                       # Number of read requests responded to by this memory
system.mem_ctrls0.num_reads::switch_cpus_1.inst         3287                       # Number of read requests responded to by this memory
system.mem_ctrls0.num_reads::switch_cpus_1.data      6703460                       # Number of read requests responded to by this memory
system.mem_ctrls0.num_reads::total           13084593                       # Number of read requests responded to by this memory
system.mem_ctrls0.num_writes::writebacks      4327217                       # Number of write requests responded to by this memory
system.mem_ctrls0.num_writes::total           4327217                       # Number of write requests responded to by this memory
system.mem_ctrls0.bw_read::cpu.inst                13                       # Total read bandwidth from this memory (bytes/s)
system.mem_ctrls0.bw_read::cpu.data                27                       # Total read bandwidth from this memory (bytes/s)
system.mem_ctrls0.bw_read::switch_cpus.inst        31243                       # Total read bandwidth from this memory (bytes/s)
system.mem_ctrls0.bw_read::switch_cpus.data     84762163                       # Total read bandwidth from this memory (bytes/s)
system.mem_ctrls0.bw_read::switch_cpus_1.inst        43701                       # Total read bandwidth from this memory (bytes/s)
system.mem_ctrls0.bw_read::switch_cpus_1.data     89122483                       # Total read bandwidth from this memory (bytes/s)
system.mem_ctrls0.bw_read::total            173959630                       # Total read bandwidth from this memory (bytes/s)
system.mem_ctrls0.bw_inst_read::cpu.inst           13                       # Instruction read bandwidth from this memory (bytes/s)
system.mem_ctrls0.bw_inst_read::switch_cpus.inst        31243                       # Instruction read bandwidth from this memory (bytes/s)
system.mem_ctrls0.bw_inst_read::switch_cpus_1.inst        43701                       # Instruction read bandwidth from this memory (bytes/s)
system.mem_ctrls0.bw_inst_read::total           74957                       # Instruction read bandwidth from this memory (bytes/s)
system.mem_ctrls0.bw_write::writebacks       57530339                       # Write bandwidth from this memory (bytes/s)
system.mem_ctrls0.bw_write::total            57530339                       # Write bandwidth from this memory (bytes/s)
system.mem_ctrls0.bw_total::writebacks       57530339                       # Total bandwidth to/from this memory (bytes/s)
system.mem_ctrls0.bw_total::cpu.inst               13                       # Total bandwidth to/from this memory (bytes/s)
system.mem_ctrls0.bw_total::cpu.data               27                       # Total bandwidth to/from this memory (bytes/s)
system.mem_ctrls0.bw_total::switch_cpus.inst        31243                       # Total bandwidth to/from this memory (bytes/s)
system.mem_ctrls0.bw_total::switch_cpus.data     84762163                       # Total bandwidth to/from this memory (bytes/s)
system.mem_ctrls0.bw_total::switch_cpus_1.inst        43701                       # Total bandwidth to/from this memory (bytes/s)
system.mem_ctrls0.bw_total::switch_cpus_1.data     89122483                       # Total bandwidth to/from this memory (bytes/s)
system.mem_ctrls0.bw_total::total           231489969                       # Total bandwidth to/from this memory (bytes/s)
system.mem_ctrls0.readReqs                   13084593                       # Number of read requests accepted
system.mem_ctrls0.writeReqs                   4327217                       # Number of write requests accepted
system.mem_ctrls0.readBursts                 13084593                       # Number of DRAM read bursts, including those serviced by the write queue
system.mem_ctrls0.writeBursts                 4327217                       # Number of DRAM write bursts, including those merged in the write queue
system.mem_ctrls0.bytesReadDRAM             836862848                       # Total number of bytes read from DRAM
system.mem_ctrls0.bytesReadWrQ                 551104                       # Total number of bytes read from write queue
system.mem_ctrls0.bytesWritten              276940544                       # Total number of bytes written to DRAM
system.mem_ctrls0.bytesReadSys              837413952                       # Total read bytes from the system interface side
system.mem_ctrls0.bytesWrittenSys           276941888                       # Total written bytes from the system interface side
system.mem_ctrls0.servicedByWrQ                  8611                       # Number of DRAM read bursts serviced by the write queue
system.mem_ctrls0.mergedWrBursts                    0                       # Number of DRAM write bursts merged with an existing one
system.mem_ctrls0.neitherReadNorWriteReqs            0                       # Number of requests that are neither read nor write
system.mem_ctrls0.perBankRdBursts::0           871150                       # Per bank write bursts
system.mem_ctrls0.perBankRdBursts::1           824951                       # Per bank write bursts
system.mem_ctrls0.perBankRdBursts::2           814993                       # Per bank write bursts
system.mem_ctrls0.perBankRdBursts::3           821591                       # Per bank write bursts
system.mem_ctrls0.perBankRdBursts::4           817361                       # Per bank write bursts
system.mem_ctrls0.perBankRdBursts::5           837184                       # Per bank write bursts
system.mem_ctrls0.perBankRdBursts::6           793457                       # Per bank write bursts
system.mem_ctrls0.perBankRdBursts::7           813157                       # Per bank write bursts
system.mem_ctrls0.perBankRdBursts::8           825188                       # Per bank write bursts
system.mem_ctrls0.perBankRdBursts::9           812515                       # Per bank write bursts
system.mem_ctrls0.perBankRdBursts::10          797828                       # Per bank write bursts
system.mem_ctrls0.perBankRdBursts::11          819063                       # Per bank write bursts
system.mem_ctrls0.perBankRdBursts::12          800497                       # Per bank write bursts
system.mem_ctrls0.perBankRdBursts::13          796762                       # Per bank write bursts
system.mem_ctrls0.perBankRdBursts::14          806637                       # Per bank write bursts
system.mem_ctrls0.perBankRdBursts::15          823648                       # Per bank write bursts
system.mem_ctrls0.perBankWrBursts::0           288472                       # Per bank write bursts
system.mem_ctrls0.perBankWrBursts::1           265384                       # Per bank write bursts
system.mem_ctrls0.perBankWrBursts::2           272069                       # Per bank write bursts
system.mem_ctrls0.perBankWrBursts::3           275241                       # Per bank write bursts
system.mem_ctrls0.perBankWrBursts::4           271363                       # Per bank write bursts
system.mem_ctrls0.perBankWrBursts::5           274473                       # Per bank write bursts
system.mem_ctrls0.perBankWrBursts::6           261692                       # Per bank write bursts
system.mem_ctrls0.perBankWrBursts::7           266820                       # Per bank write bursts
system.mem_ctrls0.perBankWrBursts::8           267193                       # Per bank write bursts
system.mem_ctrls0.perBankWrBursts::9           262947                       # Per bank write bursts
system.mem_ctrls0.perBankWrBursts::10          261076                       # Per bank write bursts
system.mem_ctrls0.perBankWrBursts::11          261726                       # Per bank write bursts
system.mem_ctrls0.perBankWrBursts::12          261039                       # Per bank write bursts
system.mem_ctrls0.perBankWrBursts::13          267553                       # Per bank write bursts
system.mem_ctrls0.perBankWrBursts::14          281652                       # Per bank write bursts
system.mem_ctrls0.perBankWrBursts::15          288496                       # Per bank write bursts
system.mem_ctrls0.numRdRetry                        0                       # Number of times read queue was full causing retry
system.mem_ctrls0.numWrRetry                        0                       # Number of times write queue was full causing retry
system.mem_ctrls0.totGap                 4813840316497                       # Total gap between requests
system.mem_ctrls0.readPktSize::0                    0                       # Read request sizes (log2)
system.mem_ctrls0.readPktSize::1                    0                       # Read request sizes (log2)
system.mem_ctrls0.readPktSize::2                    0                       # Read request sizes (log2)
system.mem_ctrls0.readPktSize::3                    0                       # Read request sizes (log2)
system.mem_ctrls0.readPktSize::4                    0                       # Read request sizes (log2)
system.mem_ctrls0.readPktSize::5                    0                       # Read request sizes (log2)
system.mem_ctrls0.readPktSize::6             13084593                       # Read request sizes (log2)
system.mem_ctrls0.writePktSize::0                   0                       # Write request sizes (log2)
system.mem_ctrls0.writePktSize::1                   0                       # Write request sizes (log2)
system.mem_ctrls0.writePktSize::2                   0                       # Write request sizes (log2)
system.mem_ctrls0.writePktSize::3                   0                       # Write request sizes (log2)
system.mem_ctrls0.writePktSize::4                   0                       # Write request sizes (log2)
system.mem_ctrls0.writePktSize::5                   0                       # Write request sizes (log2)
system.mem_ctrls0.writePktSize::6             4327217                       # Write request sizes (log2)
system.mem_ctrls0.rdQLenPdf::0               11274839                       # What read queue length does an incoming req see
system.mem_ctrls0.rdQLenPdf::1                1535364                       # What read queue length does an incoming req see
system.mem_ctrls0.rdQLenPdf::2                 246890                       # What read queue length does an incoming req see
system.mem_ctrls0.rdQLenPdf::3                  18885                       # What read queue length does an incoming req see
system.mem_ctrls0.rdQLenPdf::4                      4                       # What read queue length does an incoming req see
system.mem_ctrls0.rdQLenPdf::5                      0                       # What read queue length does an incoming req see
system.mem_ctrls0.rdQLenPdf::6                      0                       # What read queue length does an incoming req see
system.mem_ctrls0.rdQLenPdf::7                      0                       # What read queue length does an incoming req see
system.mem_ctrls0.rdQLenPdf::8                      0                       # What read queue length does an incoming req see
system.mem_ctrls0.rdQLenPdf::9                      0                       # What read queue length does an incoming req see
system.mem_ctrls0.rdQLenPdf::10                     0                       # What read queue length does an incoming req see
system.mem_ctrls0.rdQLenPdf::11                     0                       # What read queue length does an incoming req see
system.mem_ctrls0.rdQLenPdf::12                     0                       # What read queue length does an incoming req see
system.mem_ctrls0.rdQLenPdf::13                     0                       # What read queue length does an incoming req see
system.mem_ctrls0.rdQLenPdf::14                     0                       # What read queue length does an incoming req see
system.mem_ctrls0.rdQLenPdf::15                     0                       # What read queue length does an incoming req see
system.mem_ctrls0.rdQLenPdf::16                     0                       # What read queue length does an incoming req see
system.mem_ctrls0.rdQLenPdf::17                     0                       # What read queue length does an incoming req see
system.mem_ctrls0.rdQLenPdf::18                     0                       # What read queue length does an incoming req see
system.mem_ctrls0.rdQLenPdf::19                     0                       # What read queue length does an incoming req see
system.mem_ctrls0.rdQLenPdf::20                     0                       # What read queue length does an incoming req see
system.mem_ctrls0.rdQLenPdf::21                     0                       # What read queue length does an incoming req see
system.mem_ctrls0.rdQLenPdf::22                     0                       # What read queue length does an incoming req see
system.mem_ctrls0.rdQLenPdf::23                     0                       # What read queue length does an incoming req see
system.mem_ctrls0.rdQLenPdf::24                     0                       # What read queue length does an incoming req see
system.mem_ctrls0.rdQLenPdf::25                     0                       # What read queue length does an incoming req see
system.mem_ctrls0.rdQLenPdf::26                     0                       # What read queue length does an incoming req see
system.mem_ctrls0.rdQLenPdf::27                     0                       # What read queue length does an incoming req see
system.mem_ctrls0.rdQLenPdf::28                     0                       # What read queue length does an incoming req see
system.mem_ctrls0.rdQLenPdf::29                     0                       # What read queue length does an incoming req see
system.mem_ctrls0.rdQLenPdf::30                     0                       # What read queue length does an incoming req see
system.mem_ctrls0.rdQLenPdf::31                     0                       # What read queue length does an incoming req see
system.mem_ctrls0.wrQLenPdf::0                      2                       # What write queue length does an incoming req see
system.mem_ctrls0.wrQLenPdf::1                      2                       # What write queue length does an incoming req see
system.mem_ctrls0.wrQLenPdf::2                      2                       # What write queue length does an incoming req see
system.mem_ctrls0.wrQLenPdf::3                      2                       # What write queue length does an incoming req see
system.mem_ctrls0.wrQLenPdf::4                      2                       # What write queue length does an incoming req see
system.mem_ctrls0.wrQLenPdf::5                      2                       # What write queue length does an incoming req see
system.mem_ctrls0.wrQLenPdf::6                      2                       # What write queue length does an incoming req see
system.mem_ctrls0.wrQLenPdf::7                      2                       # What write queue length does an incoming req see
system.mem_ctrls0.wrQLenPdf::8                      2                       # What write queue length does an incoming req see
system.mem_ctrls0.wrQLenPdf::9                      2                       # What write queue length does an incoming req see
system.mem_ctrls0.wrQLenPdf::10                     2                       # What write queue length does an incoming req see
system.mem_ctrls0.wrQLenPdf::11                     2                       # What write queue length does an incoming req see
system.mem_ctrls0.wrQLenPdf::12                     2                       # What write queue length does an incoming req see
system.mem_ctrls0.wrQLenPdf::13                     2                       # What write queue length does an incoming req see
system.mem_ctrls0.wrQLenPdf::14                     2                       # What write queue length does an incoming req see
system.mem_ctrls0.wrQLenPdf::15                174159                       # What write queue length does an incoming req see
system.mem_ctrls0.wrQLenPdf::16                184770                       # What write queue length does an incoming req see
system.mem_ctrls0.wrQLenPdf::17                237938                       # What write queue length does an incoming req see
system.mem_ctrls0.wrQLenPdf::18                246667                       # What write queue length does an incoming req see
system.mem_ctrls0.wrQLenPdf::19                248033                       # What write queue length does an incoming req see
system.mem_ctrls0.wrQLenPdf::20                248320                       # What write queue length does an incoming req see
system.mem_ctrls0.wrQLenPdf::21                248578                       # What write queue length does an incoming req see
system.mem_ctrls0.wrQLenPdf::22                249594                       # What write queue length does an incoming req see
system.mem_ctrls0.wrQLenPdf::23                250594                       # What write queue length does an incoming req see
system.mem_ctrls0.wrQLenPdf::24                249140                       # What write queue length does an incoming req see
system.mem_ctrls0.wrQLenPdf::25                248406                       # What write queue length does an incoming req see
system.mem_ctrls0.wrQLenPdf::26                248380                       # What write queue length does an incoming req see
system.mem_ctrls0.wrQLenPdf::27                248328                       # What write queue length does an incoming req see
system.mem_ctrls0.wrQLenPdf::28                248589                       # What write queue length does an incoming req see
system.mem_ctrls0.wrQLenPdf::29                249409                       # What write queue length does an incoming req see
system.mem_ctrls0.wrQLenPdf::30                252332                       # What write queue length does an incoming req see
system.mem_ctrls0.wrQLenPdf::31                246826                       # What write queue length does an incoming req see
system.mem_ctrls0.wrQLenPdf::32                246464                       # What write queue length does an incoming req see
system.mem_ctrls0.wrQLenPdf::33                   457                       # What write queue length does an incoming req see
system.mem_ctrls0.wrQLenPdf::34                   132                       # What write queue length does an incoming req see
system.mem_ctrls0.wrQLenPdf::35                    50                       # What write queue length does an incoming req see
system.mem_ctrls0.wrQLenPdf::36                    17                       # What write queue length does an incoming req see
system.mem_ctrls0.wrQLenPdf::37                     3                       # What write queue length does an incoming req see
system.mem_ctrls0.wrQLenPdf::38                     1                       # What write queue length does an incoming req see
system.mem_ctrls0.wrQLenPdf::39                     0                       # What write queue length does an incoming req see
system.mem_ctrls0.wrQLenPdf::40                     0                       # What write queue length does an incoming req see
system.mem_ctrls0.wrQLenPdf::41                     0                       # What write queue length does an incoming req see
system.mem_ctrls0.wrQLenPdf::42                     0                       # What write queue length does an incoming req see
system.mem_ctrls0.wrQLenPdf::43                     0                       # What write queue length does an incoming req see
system.mem_ctrls0.wrQLenPdf::44                     0                       # What write queue length does an incoming req see
system.mem_ctrls0.wrQLenPdf::45                     0                       # What write queue length does an incoming req see
system.mem_ctrls0.wrQLenPdf::46                     0                       # What write queue length does an incoming req see
system.mem_ctrls0.wrQLenPdf::47                     0                       # What write queue length does an incoming req see
system.mem_ctrls0.wrQLenPdf::48                     0                       # What write queue length does an incoming req see
system.mem_ctrls0.wrQLenPdf::49                     0                       # What write queue length does an incoming req see
system.mem_ctrls0.wrQLenPdf::50                     0                       # What write queue length does an incoming req see
system.mem_ctrls0.wrQLenPdf::51                     0                       # What write queue length does an incoming req see
system.mem_ctrls0.wrQLenPdf::52                     0                       # What write queue length does an incoming req see
system.mem_ctrls0.wrQLenPdf::53                     0                       # What write queue length does an incoming req see
system.mem_ctrls0.wrQLenPdf::54                     0                       # What write queue length does an incoming req see
system.mem_ctrls0.wrQLenPdf::55                     0                       # What write queue length does an incoming req see
system.mem_ctrls0.wrQLenPdf::56                     0                       # What write queue length does an incoming req see
system.mem_ctrls0.wrQLenPdf::57                     0                       # What write queue length does an incoming req see
system.mem_ctrls0.wrQLenPdf::58                     0                       # What write queue length does an incoming req see
system.mem_ctrls0.wrQLenPdf::59                     0                       # What write queue length does an incoming req see
system.mem_ctrls0.wrQLenPdf::60                     0                       # What write queue length does an incoming req see
system.mem_ctrls0.wrQLenPdf::61                     0                       # What write queue length does an incoming req see
system.mem_ctrls0.wrQLenPdf::62                     0                       # What write queue length does an incoming req see
system.mem_ctrls0.wrQLenPdf::63                     0                       # What write queue length does an incoming req see
system.mem_ctrls0.bytesPerActivate::samples      7627674                       # Bytes accessed per row activation
system.mem_ctrls0.bytesPerActivate::mean   146.021334                       # Bytes accessed per row activation
system.mem_ctrls0.bytesPerActivate::gmean   100.866923                       # Bytes accessed per row activation
system.mem_ctrls0.bytesPerActivate::stdev   183.988132                       # Bytes accessed per row activation
system.mem_ctrls0.bytesPerActivate::0-127      4865343     63.79%     63.79% # Bytes accessed per row activation
system.mem_ctrls0.bytesPerActivate::128-255      1679128     22.01%     85.80% # Bytes accessed per row activation
system.mem_ctrls0.bytesPerActivate::256-383       417597      5.47%     91.27% # Bytes accessed per row activation
system.mem_ctrls0.bytesPerActivate::384-511       194546      2.55%     93.82% # Bytes accessed per row activation
system.mem_ctrls0.bytesPerActivate::512-639       138579      1.82%     95.64% # Bytes accessed per row activation
system.mem_ctrls0.bytesPerActivate::640-767        92795      1.22%     96.86% # Bytes accessed per row activation
system.mem_ctrls0.bytesPerActivate::768-895        61831      0.81%     97.67% # Bytes accessed per row activation
system.mem_ctrls0.bytesPerActivate::896-1023        44716      0.59%     98.25% # Bytes accessed per row activation
system.mem_ctrls0.bytesPerActivate::1024-1151       133139      1.75%    100.00% # Bytes accessed per row activation
system.mem_ctrls0.bytesPerActivate::total      7627674                       # Bytes accessed per row activation
system.mem_ctrls0.rdPerTurnAround::samples       246278                       # Reads before turning the bus around for writes
system.mem_ctrls0.rdPerTurnAround::mean     53.093922                       # Reads before turning the bus around for writes
system.mem_ctrls0.rdPerTurnAround::stdev   120.743494                       # Reads before turning the bus around for writes
system.mem_ctrls0.rdPerTurnAround::0-1023       245751     99.79%     99.79% # Reads before turning the bus around for writes
system.mem_ctrls0.rdPerTurnAround::1024-2047          468      0.19%     99.98% # Reads before turning the bus around for writes
system.mem_ctrls0.rdPerTurnAround::2048-3071           38      0.02%     99.99% # Reads before turning the bus around for writes
system.mem_ctrls0.rdPerTurnAround::3072-4095           15      0.01%    100.00% # Reads before turning the bus around for writes
system.mem_ctrls0.rdPerTurnAround::4096-5119            4      0.00%    100.00% # Reads before turning the bus around for writes
system.mem_ctrls0.rdPerTurnAround::5120-6143            1      0.00%    100.00% # Reads before turning the bus around for writes
system.mem_ctrls0.rdPerTurnAround::31744-32767            1      0.00%    100.00% # Reads before turning the bus around for writes
system.mem_ctrls0.rdPerTurnAround::total       246278                       # Reads before turning the bus around for writes
system.mem_ctrls0.wrPerTurnAround::samples       246278                       # Writes before turning the bus around for reads
system.mem_ctrls0.wrPerTurnAround::mean     17.570372                       # Writes before turning the bus around for reads
system.mem_ctrls0.wrPerTurnAround::gmean    17.541741                       # Writes before turning the bus around for reads
system.mem_ctrls0.wrPerTurnAround::stdev     0.993296                       # Writes before turning the bus around for reads
system.mem_ctrls0.wrPerTurnAround::16           61176     24.84%     24.84% # Writes before turning the bus around for reads
system.mem_ctrls0.wrPerTurnAround::17            8787      3.57%     28.41% # Writes before turning the bus around for reads
system.mem_ctrls0.wrPerTurnAround::18          154784     62.85%     91.26% # Writes before turning the bus around for reads
system.mem_ctrls0.wrPerTurnAround::19           18442      7.49%     98.75% # Writes before turning the bus around for reads
system.mem_ctrls0.wrPerTurnAround::20            2576      1.05%     99.79% # Writes before turning the bus around for reads
system.mem_ctrls0.wrPerTurnAround::21             382      0.16%     99.95% # Writes before turning the bus around for reads
system.mem_ctrls0.wrPerTurnAround::22              87      0.04%     99.98% # Writes before turning the bus around for reads
system.mem_ctrls0.wrPerTurnAround::23              29      0.01%     99.99% # Writes before turning the bus around for reads
system.mem_ctrls0.wrPerTurnAround::24              10      0.00%    100.00% # Writes before turning the bus around for reads
system.mem_ctrls0.wrPerTurnAround::25               3      0.00%    100.00% # Writes before turning the bus around for reads
system.mem_ctrls0.wrPerTurnAround::26               1      0.00%    100.00% # Writes before turning the bus around for reads
system.mem_ctrls0.wrPerTurnAround::27               1      0.00%    100.00% # Writes before turning the bus around for reads
system.mem_ctrls0.wrPerTurnAround::total       246278                       # Writes before turning the bus around for reads
system.mem_ctrls0.totQLat                256841466865                       # Total ticks spent queuing
system.mem_ctrls0.totMemAccLat           502016129365                       # Total ticks spent from burst creation until serviced by the DRAM
system.mem_ctrls0.totBusLat               65379910000                       # Total ticks spent in databus transfers
system.mem_ctrls0.avgQLat                    19642.23                       # Average queueing delay per DRAM burst
system.mem_ctrls0.avgBusLat                   5000.00                       # Average bus latency per DRAM burst
system.mem_ctrls0.avgMemAccLat               38392.23                       # Average memory access latency per DRAM burst
system.mem_ctrls0.avgRdBW                      173.85                       # Average DRAM read bandwidth in MiByte/s
system.mem_ctrls0.avgWrBW                       57.53                       # Average achieved write bandwidth in MiByte/s
system.mem_ctrls0.avgRdBWSys                   173.96                       # Average system read bandwidth in MiByte/s
system.mem_ctrls0.avgWrBWSys                    57.53                       # Average system write bandwidth in MiByte/s
system.mem_ctrls0.peakBW                     12800.00                       # Theoretical peak bandwidth in MiByte/s
system.mem_ctrls0.busUtil                        1.81                       # Data bus utilization in percentage
system.mem_ctrls0.busUtilRead                    1.36                       # Data bus utilization in percentage for reads
system.mem_ctrls0.busUtilWrite                   0.45                       # Data bus utilization in percentage for writes
system.mem_ctrls0.avgRdQLen                      1.10                       # Average read queue length when enqueuing
system.mem_ctrls0.avgWrQLen                     24.62                       # Average write queue length when enqueuing
system.mem_ctrls0.readRowHits                 8623915                       # Number of row buffer hits during reads
system.mem_ctrls0.writeRowHits                1151587                       # Number of row buffer hits during writes
system.mem_ctrls0.readRowHitRate                65.95                       # Row buffer hit rate for reads
system.mem_ctrls0.writeRowHitRate               26.61                       # Row buffer hit rate for writes
system.mem_ctrls0.avgGap                    276469.84                       # Average gap between requests
system.mem_ctrls0.pageHitRate                   56.17                       # Row buffer hit rate, read and write combined
system.mem_ctrls0_0.actEnergy             27343443960                       # Energy for activate commands per rank (pJ)
system.mem_ctrls0_0.preEnergy             14533381335                       # Energy for precharge commands per rank (pJ)
system.mem_ctrls0_0.readEnergy            47080046160                       # Energy for read commands per rank (pJ)
system.mem_ctrls0_0.writeEnergy           11356183080                       # Energy for write commands per rank (pJ)
system.mem_ctrls0_0.refreshEnergy        367866342480.000061                       # Energy for refresh commands per rank (pJ)
system.mem_ctrls0_0.actBackEnergy        253971538140                       # Energy for active background per rank (pJ)
system.mem_ctrls0_0.preBackEnergy         10459539840                       # Energy for precharge background per rank (pJ)
system.mem_ctrls0_0.actPowerDownEnergy   1517841480300                       # Energy for active power-down per rank (pJ)
system.mem_ctrls0_0.prePowerDownEnergy   221141628480                       # Energy for precharge power-down per rank (pJ)
system.mem_ctrls0_0.selfRefreshEnergy     91129936305                       # Energy for self refresh per rank (pJ)
system.mem_ctrls0_0.totalEnergy          2562855365040                       # Total energy per rank (pJ)
system.mem_ctrls0_0.averagePower           532.393048                       # Core power per rank (mW)
system.mem_ctrls0_0.totalIdleTime        4229363040495                       # Total Idle time Per DRAM Rank
system.mem_ctrls0_0.memoryStateTime::IDLE   9798343184                       # Time in different power states
system.mem_ctrls0_0.memoryStateTime::REF 155769392000                       # Time in different power states
system.mem_ctrls0_0.memoryStateTime::SREF 324864551572                       # Time in different power states
system.mem_ctrls0_0.memoryStateTime::PRE_PDN 575892195883                       # Time in different power states
system.mem_ctrls0_0.memoryStateTime::ACT 418909825499                       # Time in different power states
system.mem_ctrls0_0.memoryStateTime::ACT_PDN 3328606422805                       # Time in different power states
system.mem_ctrls0_1.actEnergy             27118162680                       # Energy for activate commands per rank (pJ)
system.mem_ctrls0_1.preEnergy             14413641495                       # Energy for precharge commands per rank (pJ)
system.mem_ctrls0_1.readEnergy            46282465320                       # Energy for read commands per rank (pJ)
system.mem_ctrls0_1.writeEnergy           11231780040                       # Energy for write commands per rank (pJ)
system.mem_ctrls0_1.refreshEnergy        367614954720.000061                       # Energy for refresh commands per rank (pJ)
system.mem_ctrls0_1.actBackEnergy        255867966330                       # Energy for active background per rank (pJ)
system.mem_ctrls0_1.preBackEnergy         10556679360                       # Energy for precharge background per rank (pJ)
system.mem_ctrls0_1.actPowerDownEnergy   1506293144640                       # Energy for active power-down per rank (pJ)
system.mem_ctrls0_1.prePowerDownEnergy   223501371840                       # Energy for precharge power-down per rank (pJ)
system.mem_ctrls0_1.selfRefreshEnergy     95556992955                       # Energy for self refresh per rank (pJ)
system.mem_ctrls0_1.totalEnergy          2558568666810                       # Total energy per rank (pJ)
system.mem_ctrls0_1.averagePower           531.502552                       # Core power per rank (mW)
system.mem_ctrls0_1.totalIdleTime        4224957537924                       # Total Idle time Per DRAM Rank
system.mem_ctrls0_1.memoryStateTime::IDLE  10186539758                       # Time in different power states
system.mem_ctrls0_1.memoryStateTime::REF 155671434000                       # Time in different power states
system.mem_ctrls0_1.memoryStateTime::SREF 339633539962                       # Time in different power states
system.mem_ctrls0_1.memoryStateTime::PRE_PDN 582034024900                       # Time in different power states
system.mem_ctrls0_1.memoryStateTime::ACT 423024517072                       # Time in different power states
system.mem_ctrls0_1.memoryStateTime::ACT_PDN 3303290675251                       # Time in different power states
system.mem_ctrls1.pwrStateResidencyTicks::UNDEFINED 74843813312289                       # Cumulative time (in ticks) in various power states
system.mem_ctrls1.bytes_read::cpu.inst             64                       # Number of bytes read from this memory
system.mem_ctrls1.bytes_read::switch_cpus.inst       138624                       # Number of bytes read from this memory
system.mem_ctrls1.bytes_read::switch_cpus.data    408320832                       # Number of bytes read from this memory
system.mem_ctrls1.bytes_read::switch_cpus_1.inst       214208                       # Number of bytes read from this memory
system.mem_ctrls1.bytes_read::switch_cpus_1.data    429353152                       # Number of bytes read from this memory
system.mem_ctrls1.bytes_read::total         838026880                       # Number of bytes read from this memory
system.mem_ctrls1.bytes_inst_read::cpu.inst           64                       # Number of instructions bytes read from this memory
system.mem_ctrls1.bytes_inst_read::switch_cpus.inst       138624                       # Number of instructions bytes read from this memory
system.mem_ctrls1.bytes_inst_read::switch_cpus_1.inst       214208                       # Number of instructions bytes read from this memory
system.mem_ctrls1.bytes_inst_read::total       352896                       # Number of instructions bytes read from this memory
system.mem_ctrls1.bytes_written::writebacks    277049600                       # Number of bytes written to this memory
system.mem_ctrls1.bytes_written::total      277049600                       # Number of bytes written to this memory
system.mem_ctrls1.num_reads::cpu.inst               1                       # Number of read requests responded to by this memory
system.mem_ctrls1.num_reads::switch_cpus.inst         2166                       # Number of read requests responded to by this memory
system.mem_ctrls1.num_reads::switch_cpus.data      6380013                       # Number of read requests responded to by this memory
system.mem_ctrls1.num_reads::switch_cpus_1.inst         3347                       # Number of read requests responded to by this memory
system.mem_ctrls1.num_reads::switch_cpus_1.data      6708643                       # Number of read requests responded to by this memory
system.mem_ctrls1.num_reads::total           13094170                       # Number of read requests responded to by this memory
system.mem_ctrls1.num_writes::writebacks      4328900                       # Number of write requests responded to by this memory
system.mem_ctrls1.num_writes::total           4328900                       # Number of write requests responded to by this memory
system.mem_ctrls1.bw_read::cpu.inst                13                       # Total read bandwidth from this memory (bytes/s)
system.mem_ctrls1.bw_read::switch_cpus.inst        28797                       # Total read bandwidth from this memory (bytes/s)
system.mem_ctrls1.bw_read::switch_cpus.data     84822256                       # Total read bandwidth from this memory (bytes/s)
system.mem_ctrls1.bw_read::switch_cpus_1.inst        44498                       # Total read bandwidth from this memory (bytes/s)
system.mem_ctrls1.bw_read::switch_cpus_1.data     89191391                       # Total read bandwidth from this memory (bytes/s)
system.mem_ctrls1.bw_read::total            174086956                       # Total read bandwidth from this memory (bytes/s)
system.mem_ctrls1.bw_inst_read::cpu.inst           13                       # Instruction read bandwidth from this memory (bytes/s)
system.mem_ctrls1.bw_inst_read::switch_cpus.inst        28797                       # Instruction read bandwidth from this memory (bytes/s)
system.mem_ctrls1.bw_inst_read::switch_cpus_1.inst        44498                       # Instruction read bandwidth from this memory (bytes/s)
system.mem_ctrls1.bw_inst_read::total           73309                       # Instruction read bandwidth from this memory (bytes/s)
system.mem_ctrls1.bw_write::writebacks       57552714                       # Write bandwidth from this memory (bytes/s)
system.mem_ctrls1.bw_write::total            57552714                       # Write bandwidth from this memory (bytes/s)
system.mem_ctrls1.bw_total::writebacks       57552714                       # Total bandwidth to/from this memory (bytes/s)
system.mem_ctrls1.bw_total::cpu.inst               13                       # Total bandwidth to/from this memory (bytes/s)
system.mem_ctrls1.bw_total::switch_cpus.inst        28797                       # Total bandwidth to/from this memory (bytes/s)
system.mem_ctrls1.bw_total::switch_cpus.data     84822256                       # Total bandwidth to/from this memory (bytes/s)
system.mem_ctrls1.bw_total::switch_cpus_1.inst        44498                       # Total bandwidth to/from this memory (bytes/s)
system.mem_ctrls1.bw_total::switch_cpus_1.data     89191391                       # Total bandwidth to/from this memory (bytes/s)
system.mem_ctrls1.bw_total::total           231639670                       # Total bandwidth to/from this memory (bytes/s)
system.mem_ctrls1.readReqs                   13094170                       # Number of read requests accepted
system.mem_ctrls1.writeReqs                   4328900                       # Number of write requests accepted
system.mem_ctrls1.readBursts                 13094170                       # Number of DRAM read bursts, including those serviced by the write queue
system.mem_ctrls1.writeBursts                 4328900                       # Number of DRAM write bursts, including those merged in the write queue
system.mem_ctrls1.bytesReadDRAM             837487808                       # Total number of bytes read from DRAM
system.mem_ctrls1.bytesReadWrQ                 539072                       # Total number of bytes read from write queue
system.mem_ctrls1.bytesWritten              277047552                       # Total number of bytes written to DRAM
system.mem_ctrls1.bytesReadSys              838026880                       # Total read bytes from the system interface side
system.mem_ctrls1.bytesWrittenSys           277049600                       # Total written bytes from the system interface side
system.mem_ctrls1.servicedByWrQ                  8423                       # Number of DRAM read bursts serviced by the write queue
system.mem_ctrls1.mergedWrBursts                    0                       # Number of DRAM write bursts merged with an existing one
system.mem_ctrls1.neitherReadNorWriteReqs            0                       # Number of requests that are neither read nor write
system.mem_ctrls1.perBankRdBursts::0           869643                       # Per bank write bursts
system.mem_ctrls1.perBankRdBursts::1           823563                       # Per bank write bursts
system.mem_ctrls1.perBankRdBursts::2           815406                       # Per bank write bursts
system.mem_ctrls1.perBankRdBursts::3           826563                       # Per bank write bursts
system.mem_ctrls1.perBankRdBursts::4           820520                       # Per bank write bursts
system.mem_ctrls1.perBankRdBursts::5           838506                       # Per bank write bursts
system.mem_ctrls1.perBankRdBursts::6           798387                       # Per bank write bursts
system.mem_ctrls1.perBankRdBursts::7           807305                       # Per bank write bursts
system.mem_ctrls1.perBankRdBursts::8           829731                       # Per bank write bursts
system.mem_ctrls1.perBankRdBursts::9           804208                       # Per bank write bursts
system.mem_ctrls1.perBankRdBursts::10          806193                       # Per bank write bursts
system.mem_ctrls1.perBankRdBursts::11          818849                       # Per bank write bursts
system.mem_ctrls1.perBankRdBursts::12          802086                       # Per bank write bursts
system.mem_ctrls1.perBankRdBursts::13          803951                       # Per bank write bursts
system.mem_ctrls1.perBankRdBursts::14          801194                       # Per bank write bursts
system.mem_ctrls1.perBankRdBursts::15          819642                       # Per bank write bursts
system.mem_ctrls1.perBankWrBursts::0           288179                       # Per bank write bursts
system.mem_ctrls1.perBankWrBursts::1           265884                       # Per bank write bursts
system.mem_ctrls1.perBankWrBursts::2           272172                       # Per bank write bursts
system.mem_ctrls1.perBankWrBursts::3           275620                       # Per bank write bursts
system.mem_ctrls1.perBankWrBursts::4           272825                       # Per bank write bursts
system.mem_ctrls1.perBankWrBursts::5           273922                       # Per bank write bursts
system.mem_ctrls1.perBankWrBursts::6           262939                       # Per bank write bursts
system.mem_ctrls1.perBankWrBursts::7           266518                       # Per bank write bursts
system.mem_ctrls1.perBankWrBursts::8           267488                       # Per bank write bursts
system.mem_ctrls1.perBankWrBursts::9           261880                       # Per bank write bursts
system.mem_ctrls1.perBankWrBursts::10          261085                       # Per bank write bursts
system.mem_ctrls1.perBankWrBursts::11          262205                       # Per bank write bursts
system.mem_ctrls1.perBankWrBursts::12          261037                       # Per bank write bursts
system.mem_ctrls1.perBankWrBursts::13          267036                       # Per bank write bursts
system.mem_ctrls1.perBankWrBursts::14          282251                       # Per bank write bursts
system.mem_ctrls1.perBankWrBursts::15          287827                       # Per bank write bursts
system.mem_ctrls1.numRdRetry                        0                       # Number of times read queue was full causing retry
system.mem_ctrls1.numWrRetry                        0                       # Number of times write queue was full causing retry
system.mem_ctrls1.totGap                 4813840476669                       # Total gap between requests
system.mem_ctrls1.readPktSize::0                    0                       # Read request sizes (log2)
system.mem_ctrls1.readPktSize::1                    0                       # Read request sizes (log2)
system.mem_ctrls1.readPktSize::2                    0                       # Read request sizes (log2)
system.mem_ctrls1.readPktSize::3                    0                       # Read request sizes (log2)
system.mem_ctrls1.readPktSize::4                    0                       # Read request sizes (log2)
system.mem_ctrls1.readPktSize::5                    0                       # Read request sizes (log2)
system.mem_ctrls1.readPktSize::6             13094170                       # Read request sizes (log2)
system.mem_ctrls1.writePktSize::0                   0                       # Write request sizes (log2)
system.mem_ctrls1.writePktSize::1                   0                       # Write request sizes (log2)
system.mem_ctrls1.writePktSize::2                   0                       # Write request sizes (log2)
system.mem_ctrls1.writePktSize::3                   0                       # Write request sizes (log2)
system.mem_ctrls1.writePktSize::4                   0                       # Write request sizes (log2)
system.mem_ctrls1.writePktSize::5                   0                       # Write request sizes (log2)
system.mem_ctrls1.writePktSize::6             4328900                       # Write request sizes (log2)
system.mem_ctrls1.rdQLenPdf::0               11281877                       # What read queue length does an incoming req see
system.mem_ctrls1.rdQLenPdf::1                1542244                       # What read queue length does an incoming req see
system.mem_ctrls1.rdQLenPdf::2                 242353                       # What read queue length does an incoming req see
system.mem_ctrls1.rdQLenPdf::3                  19269                       # What read queue length does an incoming req see
system.mem_ctrls1.rdQLenPdf::4                      4                       # What read queue length does an incoming req see
system.mem_ctrls1.rdQLenPdf::5                      0                       # What read queue length does an incoming req see
system.mem_ctrls1.rdQLenPdf::6                      0                       # What read queue length does an incoming req see
system.mem_ctrls1.rdQLenPdf::7                      0                       # What read queue length does an incoming req see
system.mem_ctrls1.rdQLenPdf::8                      0                       # What read queue length does an incoming req see
system.mem_ctrls1.rdQLenPdf::9                      0                       # What read queue length does an incoming req see
system.mem_ctrls1.rdQLenPdf::10                     0                       # What read queue length does an incoming req see
system.mem_ctrls1.rdQLenPdf::11                     0                       # What read queue length does an incoming req see
system.mem_ctrls1.rdQLenPdf::12                     0                       # What read queue length does an incoming req see
system.mem_ctrls1.rdQLenPdf::13                     0                       # What read queue length does an incoming req see
system.mem_ctrls1.rdQLenPdf::14                     0                       # What read queue length does an incoming req see
system.mem_ctrls1.rdQLenPdf::15                     0                       # What read queue length does an incoming req see
system.mem_ctrls1.rdQLenPdf::16                     0                       # What read queue length does an incoming req see
system.mem_ctrls1.rdQLenPdf::17                     0                       # What read queue length does an incoming req see
system.mem_ctrls1.rdQLenPdf::18                     0                       # What read queue length does an incoming req see
system.mem_ctrls1.rdQLenPdf::19                     0                       # What read queue length does an incoming req see
system.mem_ctrls1.rdQLenPdf::20                     0                       # What read queue length does an incoming req see
system.mem_ctrls1.rdQLenPdf::21                     0                       # What read queue length does an incoming req see
system.mem_ctrls1.rdQLenPdf::22                     0                       # What read queue length does an incoming req see
system.mem_ctrls1.rdQLenPdf::23                     0                       # What read queue length does an incoming req see
system.mem_ctrls1.rdQLenPdf::24                     0                       # What read queue length does an incoming req see
system.mem_ctrls1.rdQLenPdf::25                     0                       # What read queue length does an incoming req see
system.mem_ctrls1.rdQLenPdf::26                     0                       # What read queue length does an incoming req see
system.mem_ctrls1.rdQLenPdf::27                     0                       # What read queue length does an incoming req see
system.mem_ctrls1.rdQLenPdf::28                     0                       # What read queue length does an incoming req see
system.mem_ctrls1.rdQLenPdf::29                     0                       # What read queue length does an incoming req see
system.mem_ctrls1.rdQLenPdf::30                     0                       # What read queue length does an incoming req see
system.mem_ctrls1.rdQLenPdf::31                     0                       # What read queue length does an incoming req see
system.mem_ctrls1.wrQLenPdf::0                      2                       # What write queue length does an incoming req see
system.mem_ctrls1.wrQLenPdf::1                      2                       # What write queue length does an incoming req see
system.mem_ctrls1.wrQLenPdf::2                      2                       # What write queue length does an incoming req see
system.mem_ctrls1.wrQLenPdf::3                      2                       # What write queue length does an incoming req see
system.mem_ctrls1.wrQLenPdf::4                      2                       # What write queue length does an incoming req see
system.mem_ctrls1.wrQLenPdf::5                      2                       # What write queue length does an incoming req see
system.mem_ctrls1.wrQLenPdf::6                      2                       # What write queue length does an incoming req see
system.mem_ctrls1.wrQLenPdf::7                      2                       # What write queue length does an incoming req see
system.mem_ctrls1.wrQLenPdf::8                      2                       # What write queue length does an incoming req see
system.mem_ctrls1.wrQLenPdf::9                      2                       # What write queue length does an incoming req see
system.mem_ctrls1.wrQLenPdf::10                     2                       # What write queue length does an incoming req see
system.mem_ctrls1.wrQLenPdf::11                     2                       # What write queue length does an incoming req see
system.mem_ctrls1.wrQLenPdf::12                     2                       # What write queue length does an incoming req see
system.mem_ctrls1.wrQLenPdf::13                     2                       # What write queue length does an incoming req see
system.mem_ctrls1.wrQLenPdf::14                     2                       # What write queue length does an incoming req see
system.mem_ctrls1.wrQLenPdf::15                174391                       # What write queue length does an incoming req see
system.mem_ctrls1.wrQLenPdf::16                185036                       # What write queue length does an incoming req see
system.mem_ctrls1.wrQLenPdf::17                237986                       # What write queue length does an incoming req see
system.mem_ctrls1.wrQLenPdf::18                246837                       # What write queue length does an incoming req see
system.mem_ctrls1.wrQLenPdf::19                248105                       # What write queue length does an incoming req see
system.mem_ctrls1.wrQLenPdf::20                248334                       # What write queue length does an incoming req see
system.mem_ctrls1.wrQLenPdf::21                248734                       # What write queue length does an incoming req see
system.mem_ctrls1.wrQLenPdf::22                249643                       # What write queue length does an incoming req see
system.mem_ctrls1.wrQLenPdf::23                250574                       # What write queue length does an incoming req see
system.mem_ctrls1.wrQLenPdf::24                249253                       # What write queue length does an incoming req see
system.mem_ctrls1.wrQLenPdf::25                248624                       # What write queue length does an incoming req see
system.mem_ctrls1.wrQLenPdf::26                248417                       # What write queue length does an incoming req see
system.mem_ctrls1.wrQLenPdf::27                248316                       # What write queue length does an incoming req see
system.mem_ctrls1.wrQLenPdf::28                248752                       # What write queue length does an incoming req see
system.mem_ctrls1.wrQLenPdf::29                249379                       # What write queue length does an incoming req see
system.mem_ctrls1.wrQLenPdf::30                252342                       # What write queue length does an incoming req see
system.mem_ctrls1.wrQLenPdf::31                246910                       # What write queue length does an incoming req see
system.mem_ctrls1.wrQLenPdf::32                246591                       # What write queue length does an incoming req see
system.mem_ctrls1.wrQLenPdf::33                   452                       # What write queue length does an incoming req see
system.mem_ctrls1.wrQLenPdf::34                   129                       # What write queue length does an incoming req see
system.mem_ctrls1.wrQLenPdf::35                    50                       # What write queue length does an incoming req see
system.mem_ctrls1.wrQLenPdf::36                    11                       # What write queue length does an incoming req see
system.mem_ctrls1.wrQLenPdf::37                     4                       # What write queue length does an incoming req see
system.mem_ctrls1.wrQLenPdf::38                     0                       # What write queue length does an incoming req see
system.mem_ctrls1.wrQLenPdf::39                     0                       # What write queue length does an incoming req see
system.mem_ctrls1.wrQLenPdf::40                     0                       # What write queue length does an incoming req see
system.mem_ctrls1.wrQLenPdf::41                     0                       # What write queue length does an incoming req see
system.mem_ctrls1.wrQLenPdf::42                     0                       # What write queue length does an incoming req see
system.mem_ctrls1.wrQLenPdf::43                     0                       # What write queue length does an incoming req see
system.mem_ctrls1.wrQLenPdf::44                     0                       # What write queue length does an incoming req see
system.mem_ctrls1.wrQLenPdf::45                     0                       # What write queue length does an incoming req see
system.mem_ctrls1.wrQLenPdf::46                     0                       # What write queue length does an incoming req see
system.mem_ctrls1.wrQLenPdf::47                     0                       # What write queue length does an incoming req see
system.mem_ctrls1.wrQLenPdf::48                     0                       # What write queue length does an incoming req see
system.mem_ctrls1.wrQLenPdf::49                     0                       # What write queue length does an incoming req see
system.mem_ctrls1.wrQLenPdf::50                     0                       # What write queue length does an incoming req see
system.mem_ctrls1.wrQLenPdf::51                     0                       # What write queue length does an incoming req see
system.mem_ctrls1.wrQLenPdf::52                     0                       # What write queue length does an incoming req see
system.mem_ctrls1.wrQLenPdf::53                     0                       # What write queue length does an incoming req see
system.mem_ctrls1.wrQLenPdf::54                     0                       # What write queue length does an incoming req see
system.mem_ctrls1.wrQLenPdf::55                     0                       # What write queue length does an incoming req see
system.mem_ctrls1.wrQLenPdf::56                     0                       # What write queue length does an incoming req see
system.mem_ctrls1.wrQLenPdf::57                     0                       # What write queue length does an incoming req see
system.mem_ctrls1.wrQLenPdf::58                     0                       # What write queue length does an incoming req see
system.mem_ctrls1.wrQLenPdf::59                     0                       # What write queue length does an incoming req see
system.mem_ctrls1.wrQLenPdf::60                     0                       # What write queue length does an incoming req see
system.mem_ctrls1.wrQLenPdf::61                     0                       # What write queue length does an incoming req see
system.mem_ctrls1.wrQLenPdf::62                     0                       # What write queue length does an incoming req see
system.mem_ctrls1.wrQLenPdf::63                     0                       # What write queue length does an incoming req see
system.mem_ctrls1.bytesPerActivate::samples      7639682                       # Bytes accessed per row activation
system.mem_ctrls1.bytesPerActivate::mean   145.887605                       # Bytes accessed per row activation
system.mem_ctrls1.bytesPerActivate::gmean   100.842944                       # Bytes accessed per row activation
system.mem_ctrls1.bytesPerActivate::stdev   183.730137                       # Bytes accessed per row activation
system.mem_ctrls1.bytesPerActivate::0-127      4871172     63.76%     63.76% # Bytes accessed per row activation
system.mem_ctrls1.bytesPerActivate::128-255      1685918     22.07%     85.83% # Bytes accessed per row activation
system.mem_ctrls1.bytesPerActivate::256-383       418304      5.48%     91.30% # Bytes accessed per row activation
system.mem_ctrls1.bytesPerActivate::384-511       194190      2.54%     93.85% # Bytes accessed per row activation
system.mem_ctrls1.bytesPerActivate::512-639       138672      1.82%     95.66% # Bytes accessed per row activation
system.mem_ctrls1.bytesPerActivate::640-767        92136      1.21%     96.87% # Bytes accessed per row activation
system.mem_ctrls1.bytesPerActivate::768-895        61482      0.80%     97.67% # Bytes accessed per row activation
system.mem_ctrls1.bytesPerActivate::896-1023        44947      0.59%     98.26% # Bytes accessed per row activation
system.mem_ctrls1.bytesPerActivate::1024-1151       132861      1.74%    100.00% # Bytes accessed per row activation
system.mem_ctrls1.bytesPerActivate::total      7639682                       # Bytes accessed per row activation
system.mem_ctrls1.rdPerTurnAround::samples       246358                       # Reads before turning the bus around for writes
system.mem_ctrls1.rdPerTurnAround::mean     53.115945                       # Reads before turning the bus around for writes
system.mem_ctrls1.rdPerTurnAround::stdev   119.630858                       # Reads before turning the bus around for writes
system.mem_ctrls1.rdPerTurnAround::0-1023       245833     99.79%     99.79% # Reads before turning the bus around for writes
system.mem_ctrls1.rdPerTurnAround::1024-2047          455      0.18%     99.97% # Reads before turning the bus around for writes
system.mem_ctrls1.rdPerTurnAround::2048-3071           53      0.02%     99.99% # Reads before turning the bus around for writes
system.mem_ctrls1.rdPerTurnAround::3072-4095           12      0.00%    100.00% # Reads before turning the bus around for writes
system.mem_ctrls1.rdPerTurnAround::4096-5119            3      0.00%    100.00% # Reads before turning the bus around for writes
system.mem_ctrls1.rdPerTurnAround::5120-6143            1      0.00%    100.00% # Reads before turning the bus around for writes
system.mem_ctrls1.rdPerTurnAround::31744-32767            1      0.00%    100.00% # Reads before turning the bus around for writes
system.mem_ctrls1.rdPerTurnAround::total       246358                       # Reads before turning the bus around for writes
system.mem_ctrls1.wrPerTurnAround::samples       246358                       # Writes before turning the bus around for reads
system.mem_ctrls1.wrPerTurnAround::mean     17.571453                       # Writes before turning the bus around for reads
system.mem_ctrls1.wrPerTurnAround::gmean    17.543000                       # Writes before turning the bus around for reads
system.mem_ctrls1.wrPerTurnAround::stdev     0.989970                       # Writes before turning the bus around for reads
system.mem_ctrls1.wrPerTurnAround::16           60895     24.72%     24.72% # Writes before turning the bus around for reads
system.mem_ctrls1.wrPerTurnAround::17            8847      3.59%     28.31% # Writes before turning the bus around for reads
system.mem_ctrls1.wrPerTurnAround::18          155256     63.02%     91.33% # Writes before turning the bus around for reads
system.mem_ctrls1.wrPerTurnAround::19           18290      7.42%     98.75% # Writes before turning the bus around for reads
system.mem_ctrls1.wrPerTurnAround::20            2608      1.06%     99.81% # Writes before turning the bus around for reads
system.mem_ctrls1.wrPerTurnAround::21             358      0.15%     99.96% # Writes before turning the bus around for reads
system.mem_ctrls1.wrPerTurnAround::22              61      0.02%     99.98% # Writes before turning the bus around for reads
system.mem_ctrls1.wrPerTurnAround::23              29      0.01%     99.99% # Writes before turning the bus around for reads
system.mem_ctrls1.wrPerTurnAround::24               8      0.00%    100.00% # Writes before turning the bus around for reads
system.mem_ctrls1.wrPerTurnAround::25               4      0.00%    100.00% # Writes before turning the bus around for reads
system.mem_ctrls1.wrPerTurnAround::26               2      0.00%    100.00% # Writes before turning the bus around for reads
system.mem_ctrls1.wrPerTurnAround::total       246358                       # Writes before turning the bus around for reads
system.mem_ctrls1.totQLat                257284259606                       # Total ticks spent queuing
system.mem_ctrls1.totMemAccLat           502642015856                       # Total ticks spent from burst creation until serviced by the DRAM
system.mem_ctrls1.totBusLat               65428735000                       # Total ticks spent in databus transfers
system.mem_ctrls1.avgQLat                    19661.41                       # Average queueing delay per DRAM burst
system.mem_ctrls1.avgBusLat                   5000.00                       # Average bus latency per DRAM burst
system.mem_ctrls1.avgMemAccLat               38411.41                       # Average memory access latency per DRAM burst
system.mem_ctrls1.avgRdBW                      173.97                       # Average DRAM read bandwidth in MiByte/s
system.mem_ctrls1.avgWrBW                       57.55                       # Average achieved write bandwidth in MiByte/s
system.mem_ctrls1.avgRdBWSys                   174.09                       # Average system read bandwidth in MiByte/s
system.mem_ctrls1.avgWrBWSys                    57.55                       # Average system write bandwidth in MiByte/s
system.mem_ctrls1.peakBW                     12800.00                       # Theoretical peak bandwidth in MiByte/s
system.mem_ctrls1.busUtil                        1.81                       # Data bus utilization in percentage
system.mem_ctrls1.busUtilRead                    1.36                       # Data bus utilization in percentage for reads
system.mem_ctrls1.busUtilWrite                   0.45                       # Data bus utilization in percentage for writes
system.mem_ctrls1.avgRdQLen                      1.10                       # Average read queue length when enqueuing
system.mem_ctrls1.avgWrQLen                     24.63                       # Average write queue length when enqueuing
system.mem_ctrls1.readRowHits                 8622656                       # Number of row buffer hits during reads
system.mem_ctrls1.writeRowHits                1152274                       # Number of row buffer hits during writes
system.mem_ctrls1.readRowHitRate                65.89                       # Row buffer hit rate for reads
system.mem_ctrls1.writeRowHitRate               26.62                       # Row buffer hit rate for writes
system.mem_ctrls1.avgGap                    276291.17                       # Average gap between requests
system.mem_ctrls1.pageHitRate                   56.13                       # Row buffer hit rate, read and write combined
system.mem_ctrls1_0.actEnergy             27386640960                       # Energy for activate commands per rank (pJ)
system.mem_ctrls1_0.preEnergy             14556344880                       # Energy for precharge commands per rank (pJ)
system.mem_ctrls1_0.readEnergy            47123236020                       # Energy for read commands per rank (pJ)
system.mem_ctrls1_0.writeEnergy           11369467980                       # Energy for write commands per rank (pJ)
system.mem_ctrls1_0.refreshEnergy        367806722400.000061                       # Energy for refresh commands per rank (pJ)
system.mem_ctrls1_0.actBackEnergy        252686236590                       # Energy for active background per rank (pJ)
system.mem_ctrls1_0.preBackEnergy         10432808160                       # Energy for precharge background per rank (pJ)
system.mem_ctrls1_0.actPowerDownEnergy   1520995107330                       # Energy for active power-down per rank (pJ)
system.mem_ctrls1_0.prePowerDownEnergy   220022901120                       # Energy for precharge power-down per rank (pJ)
system.mem_ctrls1_0.selfRefreshEnergy     90722123250                       # Energy for self refresh per rank (pJ)
system.mem_ctrls1_0.totalEnergy          2563240345050                       # Total energy per rank (pJ)
system.mem_ctrls1_0.averagePower           532.473020                       # Core power per rank (mW)
system.mem_ctrls1_0.totalIdleTime        4232235647326                       # Total Idle time Per DRAM Rank
system.mem_ctrls1_0.memoryStateTime::IDLE   9736053660                       # Time in different power states
system.mem_ctrls1_0.memoryStateTime::REF 155741724000                       # Time in different power states
system.mem_ctrls1_0.memoryStateTime::SREF 323734746713                       # Time in different power states
system.mem_ctrls1_0.memoryStateTime::PRE_PDN 572974647634                       # Time in different power states
system.mem_ctrls1_0.memoryStateTime::ACT 416127134444                       # Time in different power states
system.mem_ctrls1_0.memoryStateTime::ACT_PDN 3335526424492                       # Time in different power states
system.mem_ctrls1_1.actEnergy             27160709940                       # Energy for activate commands per rank (pJ)
system.mem_ctrls1_1.preEnergy             14436248310                       # Energy for precharge commands per rank (pJ)
system.mem_ctrls1_1.readEnergy            46308997560                       # Energy for read commands per rank (pJ)
system.mem_ctrls1_1.writeEnergy           11227222980                       # Energy for write commands per rank (pJ)
system.mem_ctrls1_1.refreshEnergy        367691784720.000061                       # Energy for refresh commands per rank (pJ)
system.mem_ctrls1_1.actBackEnergy        256540998960                       # Energy for active background per rank (pJ)
system.mem_ctrls1_1.preBackEnergy         10547454240                       # Energy for precharge background per rank (pJ)
system.mem_ctrls1_1.actPowerDownEnergy   1506800960490                       # Energy for active power-down per rank (pJ)
system.mem_ctrls1_1.prePowerDownEnergy   223217338560                       # Energy for precharge power-down per rank (pJ)
system.mem_ctrls1_1.selfRefreshEnergy     95054457225                       # Energy for self refresh per rank (pJ)
system.mem_ctrls1_1.totalEnergy          2559116084355                       # Total energy per rank (pJ)
system.mem_ctrls1_1.averagePower           531.616271                       # Core power per rank (mW)
system.mem_ctrls1_1.totalIdleTime        4223505612241                       # Total Idle time Per DRAM Rank
system.mem_ctrls1_1.memoryStateTime::IDLE  10158732203                       # Time in different power states
system.mem_ctrls1_1.memoryStateTime::REF 155703238000                       # Time in different power states
system.mem_ctrls1_1.memoryStateTime::SREF 337811260060                       # Time in different power states
system.mem_ctrls1_1.memoryStateTime::PRE_PDN 581298943411                       # Time in different power states
system.mem_ctrls1_1.memoryStateTime::ACT 424472933960                       # Time in different power states
system.mem_ctrls1_1.memoryStateTime::ACT_PDN 3304395623309                       # Time in different power states
system.pwrStateResidencyTicks::UNDEFINED 74843813312289                       # Cumulative time (in ticks) in various power states
system.cpu.branchPred.lookups                       1                       # Number of BP lookups
system.cpu.branchPred.condPredicted                 1                       # Number of conditional branches predicted
system.cpu.branchPred.condIncorrect                 0                       # Number of conditional branches incorrect
system.cpu.branchPred.BTBLookups                    0                       # Number of BTB lookups
system.cpu.branchPred.BTBHits                       0                       # Number of BTB hits
system.cpu.branchPred.BTBCorrect                    0                       # Number of correct BTB predictions (this stat may not work properly.
system.cpu.branchPred.BTBHitPct                   nan                       # BTB Hit Percentage
system.cpu.branchPred.usedRAS                       0                       # Number of times the RAS was used to get a target.
system.cpu.branchPred.RASInCorrect                  0                       # Number of incorrect RAS predictions.
system.cpu.branchPred.indirectLookups               0                       # Number of indirect predictor lookups.
system.cpu.branchPred.indirectHits                  0                       # Number of indirect target hits.
system.cpu.branchPred.indirectMisses                0                       # Number of indirect misses.
system.cpu.branchPredindirectMispredicted            0                       # Number of mispredicted indirect branches.
system.cpu_voltage_domain.voltage                   1                       # Voltage in Volts
system.cpu_clk_domain.clock                       333                       # Clock period in ticks
system.cpu.dtb.fetch_hits                           0                       # ITB hits
system.cpu.dtb.fetch_misses                         0                       # ITB misses
system.cpu.dtb.fetch_acv                            0                       # ITB acv
system.cpu.dtb.fetch_accesses                       0                       # ITB accesses
system.cpu.dtb.read_hits                            2                       # DTB read hits
system.cpu.dtb.read_misses                          0                       # DTB read misses
system.cpu.dtb.read_acv                             0                       # DTB read access violations
system.cpu.dtb.read_accesses                        2                       # DTB read accesses
system.cpu.dtb.write_hits                           0                       # DTB write hits
system.cpu.dtb.write_misses                         0                       # DTB write misses
system.cpu.dtb.write_acv                            0                       # DTB write access violations
system.cpu.dtb.write_accesses                       0                       # DTB write accesses
system.cpu.dtb.data_hits                            2                       # DTB hits
system.cpu.dtb.data_misses                          0                       # DTB misses
system.cpu.dtb.data_acv                             0                       # DTB access violations
system.cpu.dtb.data_accesses                        2                       # DTB accesses
system.cpu.itb.fetch_hits                           3                       # ITB hits
system.cpu.itb.fetch_misses                         0                       # ITB misses
system.cpu.itb.fetch_acv                            0                       # ITB acv
system.cpu.itb.fetch_accesses                       3                       # ITB accesses
system.cpu.itb.read_hits                            0                       # DTB read hits
system.cpu.itb.read_misses                          0                       # DTB read misses
system.cpu.itb.read_acv                             0                       # DTB read access violations
system.cpu.itb.read_accesses                        0                       # DTB read accesses
system.cpu.itb.write_hits                           0                       # DTB write hits
system.cpu.itb.write_misses                         0                       # DTB write misses
system.cpu.itb.write_acv                            0                       # DTB write access violations
system.cpu.itb.write_accesses                       0                       # DTB write accesses
system.cpu.itb.data_hits                            0                       # DTB hits
system.cpu.itb.data_misses                          0                       # DTB misses
system.cpu.itb.data_acv                             0                       # DTB access violations
system.cpu.itb.data_accesses                        0                       # DTB accesses
system.cpu.workload.num_syscalls                   10                       # Number of system calls
system.cpu.pwrStateResidencyTicks::ON    4813840730943                       # Cumulative time (in ticks) in various power states
system.cpu.numCycles                              492                       # number of cpu cycles simulated
system.cpu.numWorkItemsStarted                      0                       # number of work items this cpu started
system.cpu.numWorkItemsCompleted                    0                       # number of work items this cpu completed
system.cpu.fetch.icacheStallCycles                 18                       # Number of cycles fetch is stalled on an Icache miss
system.cpu.fetch.Insts                             10                       # Number of instructions fetch has processed
system.cpu.fetch.Branches                           1                       # Number of branches that fetch encountered
system.cpu.fetch.Cycles                             2                       # Number of cycles fetch has run and was not squashing or blocked
system.cpu.fetch.SquashCycles                       3                       # Number of cycles fetch has spent squashing
[...]
system.switch_cpus_1.iq.int_inst_queue_wakeup_accesses   1025397494                       # Number of integer instruction queue wakeup accesses
system.switch_cpus_1.iq.fp_inst_queue_reads    624248958                       # Number of floating instruction queue reads
system.switch_cpus_1.iq.fp_inst_queue_writes    406258413                       # Number of floating instruction queue writes
system.switch_cpus_1.iq.fp_inst_queue_wakeup_accesses    278424749                       # Number of floating instruction queue wakeup accesses
system.switch_cpus_1.iq.int_alu_accesses   1114923613                       # Number of integer alu accesses
system.switch_cpus_1.iq.fp_alu_accesses     319287716                       # Number of floating point alu accesses
system.switch_cpus_1.iew.lsq.thread0.forwLoads     12990866                       # Number of loads that had data forwarded from stores
system.switch_cpus_1.iew.lsq.thread0.invAddrLoads            0                       # Number of loads ignored due to an invalid address
system.switch_cpus_1.iew.lsq.thread0.squashedLoads    114312150                       # Number of loads squashed
system.switch_cpus_1.iew.lsq.thread0.ignoredResponses        92291                       # Number of memory responses ignored because the instruction is squashed
system.switch_cpus_1.iew.lsq.thread0.memOrderViolation        53885                       # Number of memory ordering violations
system.switch_cpus_1.iew.lsq.thread0.squashedStores     40123484                       # Number of stores squashed
system.switch_cpus_1.iew.lsq.thread0.invAddrSwpfs            0                       # Number of software prefetches ignored due to an invalid address
system.switch_cpus_1.iew.lsq.thread0.blockedLoads            0                       # Number of blocked loads due to partial load-store forwarding
system.switch_cpus_1.iew.lsq.thread0.rescheduledLoads        25805                       # Number of loads that were rescheduled
system.switch_cpus_1.iew.lsq.thread0.cacheBlocked     68040312                       # Number of times an access to memory failed due to the cache being blocked
system.switch_cpus_1.iew.iewIdleCycles              0                       # Number of cycles IEW is idle
system.switch_cpus_1.iew.iewSquashCycles      8734542                       # Number of cycles IEW is squashing
system.switch_cpus_1.iew.iewBlockCycles    1046991448                       # Number of cycles IEW is blocking
system.switch_cpus_1.iew.iewUnblockCycles    418320357                       # Number of cycles IEW is unblocking
system.switch_cpus_1.iew.iewDispatchedInsts   1504923116                       # Number of instructions dispatched to IQ
system.switch_cpus_1.iew.iewDispSquashedInsts      1006506                       # Number of squashed instructions skipped by dispatch
system.switch_cpus_1.iew.iewDispLoadInsts    314254351                       # Number of dispatched load instructions
system.switch_cpus_1.iew.iewDispStoreInsts    103767719                       # Number of dispatched store instructions
system.switch_cpus_1.iew.iewDispNonSpecInsts         1053                       # Number of dispatched non-speculative instructions
system.switch_cpus_1.iew.iewIQFullEvents      5407809                       # Number of times the IQ has become full, causing a stall
system.switch_cpus_1.iew.iewLSQFullEvents    409947377                       # Number of times the LSQ has become full, causing a stall
system.switch_cpus_1.iew.memOrderViolationEvents        53885                       # Number of memory order violations
system.switch_cpus_1.iew.predictedTakenIncorrect      4651047                       # Number of branches that were predicted taken incorrectly
system.switch_cpus_1.iew.predictedNotTakenIncorrect      3525940                       # Number of branches that were predicted not taken incorrectly
system.switch_cpus_1.iew.branchMispredicts      8176987                       # Number of branch mispredicts detected at execute
system.switch_cpus_1.iew.iewExecutedInsts   1389551979                       # Number of executed instructions
system.switch_cpus_1.iew.iewExecLoadInsts    350396350                       # Number of load instructions executed
system.switch_cpus_1.iew.iewExecSquashedInsts     10433701                       # Number of squashed instructions skipped in execute
system.switch_cpus_1.iew.exec_swp                   0                       # number of swp insts executed
system.switch_cpus_1.iew.exec_nop             9048294                       # number of nop insts executed
system.switch_cpus_1.iew.exec_refs          434675137                       # number of memory reference insts executed
system.switch_cpus_1.iew.exec_branches      178357073                       # Number of branches executed
system.switch_cpus_1.iew.exec_stores         84278787                       # Number of stores executed
system.switch_cpus_1.iew.exec_rate           0.353407                       # Inst execution rate
system.switch_cpus_1.iew.wb_sent           1314669143                       # cumulative count of insts sent to commit
system.switch_cpus_1.iew.wb_count          1303822243                       # cumulative count of insts written-back
system.switch_cpus_1.iew.wb_producers       787462577                       # num instructions producing a value
system.switch_cpus_1.iew.wb_consumers       985520065                       # num instructions consuming a value
system.switch_cpus_1.iew.wb_rate             0.331604                       # insts written-back per cycle
system.switch_cpus_1.iew.wb_fanout           0.799033                       # average fanout of values written-back
system.switch_cpus_1.commit.commitSquashedInsts    476327076                       # The number of squashed insts skipped by commit
system.switch_cpus_1.commit.commitNonSpecStalls         1021                       # The number of times commit has been forced to stall to communicate backwards
system.switch_cpus_1.commit.branchMispredicts      6738986                       # The number of times a branch was mispredicted
system.switch_cpus_1.commit.committed_per_cycle::samples   3863319528                       # Number of insts commited each cycle
system.switch_cpus_1.commit.committed_per_cycle::mean     0.260333                       # Number of insts commited each cycle
system.switch_cpus_1.commit.committed_per_cycle::stdev     1.315366                       # Number of insts commited each cycle
system.switch_cpus_1.commit.committed_per_cycle::underflows            0      0.00%      0.00% # Number of insts commited each cycle
system.switch_cpus_1.commit.committed_per_cycle::0   3663216328     94.82%     94.82% # Number of insts commited each cycle
system.switch_cpus_1.commit.committed_per_cycle::1     49005329      1.27%     96.09% # Number of insts commited each cycle
system.switch_cpus_1.commit.committed_per_cycle::2     21306923      0.55%     96.64% # Number of insts commited each cycle
system.switch_cpus_1.commit.committed_per_cycle::3     10766584      0.28%     96.92% # Number of insts commited each cycle
system.switch_cpus_1.commit.committed_per_cycle::4      7275114      0.19%     97.11% # Number of insts commited each cycle
system.switch_cpus_1.commit.committed_per_cycle::5      9608870      0.25%     97.36% # Number of insts commited each cycle
system.switch_cpus_1.commit.committed_per_cycle::6      3962487      0.10%     97.46% # Number of insts commited each cycle
system.switch_cpus_1.commit.committed_per_cycle::7      4512538      0.12%     97.58% # Number of insts commited each cycle
system.switch_cpus_1.commit.committed_per_cycle::8     93665355      2.42%    100.00% # Number of insts commited each cycle
system.switch_cpus_1.commit.committed_per_cycle::overflows            0      0.00%    100.00% # Number of insts commited each cycle
system.switch_cpus_1.commit.committed_per_cycle::min_value            0                       # Number of insts commited each cycle
system.switch_cpus_1.commit.committed_per_cycle::max_value            8                       # Number of insts commited each cycle
system.switch_cpus_1.commit.committed_per_cycle::total   3863319528                       # Number of insts commited each cycle
system.switch_cpus_1.commit.committedInsts   1005749261                       # Number of instructions committed
system.switch_cpus_1.commit.committedOps   1005749261                       # Number of ops (including micro ops) committed
system.switch_cpus_1.commit.swp_count               0                       # Number of s/w prefetches committed
system.switch_cpus_1.commit.refs            263586427                       # Number of memory references committed
system.switch_cpus_1.commit.loads           199942196                       # Number of loads committed
system.switch_cpus_1.commit.membars               508                       # Number of memory barriers committed
system.switch_cpus_1.commit.branches        142461598                       # Number of branches committed
system.switch_cpus_1.commit.fp_insts        241799404                       # Number of committed floating point instructions.
system.switch_cpus_1.commit.int_insts       852515971                       # Number of committed integer instructions.
system.switch_cpus_1.commit.function_calls      2755655                       # Number of function calls committed.
system.switch_cpus_1.commit.op_class_0::No_OpClass      5749259      0.57%      0.57% # Class of committed instruction
system.switch_cpus_1.commit.op_class_0::IntAlu    590992966     58.76%     59.33% # Class of committed instruction
system.switch_cpus_1.commit.op_class_0::IntMult       836609      0.08%     59.42% # Class of committed instruction
system.switch_cpus_1.commit.op_class_0::IntDiv            0      0.00%     59.42% # Class of committed instruction
system.switch_cpus_1.commit.op_class_0::FloatAdd     88134046      8.76%     68.18% # Class of committed instruction
system.switch_cpus_1.commit.op_class_0::FloatCmp     49385919      4.91%     73.09% # Class of committed instruction
system.switch_cpus_1.commit.op_class_0::FloatCvt        18389      0.00%     73.09% # Class of committed instruction
system.switch_cpus_1.commit.op_class_0::FloatMult      4544779      0.45%     73.54% # Class of committed instruction
system.switch_cpus_1.commit.op_class_0::FloatMultAcc            0      0.00%     73.54% # Class of committed instruction
system.switch_cpus_1.commit.op_class_0::FloatDiv      2500359      0.25%     73.79% # Class of committed instruction
system.switch_cpus_1.commit.op_class_0::FloatMisc            0      0.00%     73.79% # Class of committed instruction
system.switch_cpus_1.commit.op_class_0::FloatSqrt            0      0.00%     73.79% # Class of committed instruction
system.switch_cpus_1.commit.op_class_0::SimdAdd            0      0.00%     73.79% # Class of committed instruction
system.switch_cpus_1.commit.op_class_0::SimdAddAcc            0      0.00%     73.79% # Class of committed instruction
system.switch_cpus_1.commit.op_class_0::SimdAlu            0      0.00%     73.79% # Class of committed instruction
system.switch_cpus_1.commit.op_class_0::SimdCmp            0      0.00%     73.79% # Class of committed instruction
system.switch_cpus_1.commit.op_class_0::SimdCvt            0      0.00%     73.79% # Class of committed instruction
system.switch_cpus_1.commit.op_class_0::SimdMisc            0      0.00%     73.79% # Class of committed instruction
system.switch_cpus_1.commit.op_class_0::SimdMult            0      0.00%     73.79% # Class of committed instruction
system.switch_cpus_1.commit.op_class_0::SimdMultAcc            0      0.00%     73.79% # Class of committed instruction
system.switch_cpus_1.commit.op_class_0::SimdShift            0      0.00%     73.79% # Class of committed instruction
system.switch_cpus_1.commit.op_class_0::SimdShiftAcc            0      0.00%     73.79% # Class of committed instruction
system.switch_cpus_1.commit.op_class_0::SimdSqrt            0      0.00%     73.79% # Class of committed instruction
system.switch_cpus_1.commit.op_class_0::SimdFloatAdd            0      0.00%     73.79% # Class of committed instruction
system.switch_cpus_1.commit.op_class_0::SimdFloatAlu            0      0.00%     73.79% # Class of committed instruction
system.switch_cpus_1.commit.op_class_0::SimdFloatCmp            0      0.00%     73.79% # Class of committed instruction
system.switch_cpus_1.commit.op_class_0::SimdFloatCvt            0      0.00%     73.79% # Class of committed instruction
system.switch_cpus_1.commit.op_class_0::SimdFloatDiv            0      0.00%     73.79% # Class of committed instruction
system.switch_cpus_1.commit.op_class_0::SimdFloatMisc            0      0.00%     73.79% # Class of committed instruction
system.switch_cpus_1.commit.op_class_0::SimdFloatMult            0      0.00%     73.79% # Class of committed instruction
system.switch_cpus_1.commit.op_class_0::SimdFloatMultAcc            0      0.00%     73.79% # Class of committed instruction
system.switch_cpus_1.commit.op_class_0::SimdFloatSqrt            0      0.00%     73.79% # Class of committed instruction
system.switch_cpus_1.commit.op_class_0::MemRead    109416176     10.88%     84.67% # Class of committed instruction
system.switch_cpus_1.commit.op_class_0::MemWrite     56954847      5.66%     90.33% # Class of committed instruction
system.switch_cpus_1.commit.op_class_0::FloatMemRead     90526528      9.00%     99.33% # Class of committed instruction
system.switch_cpus_1.commit.op_class_0::FloatMemWrite      6689384      0.67%    100.00% # Class of committed instruction
system.switch_cpus_1.commit.op_class_0::IprAccess            0      0.00%    100.00% # Class of committed instruction
system.switch_cpus_1.commit.op_class_0::InstPrefetch            0      0.00%    100.00% # Class of committed instruction
system.switch_cpus_1.commit.op_class_0::total   1005749261                       # Class of committed instruction
system.switch_cpus_1.commit.bw_lim_events     93665355                       # number cycles where commit BW limit reached
system.switch_cpus_1.rob.rob_reads         5226338364                       # The number of ROB reads
system.switch_cpus_1.rob.rob_writes        3030684192                       # The number of ROB writes
system.switch_cpus_1.timesIdled                 11756                       # Number of times that the entire CPU went into an idle state and unscheduled itself
system.switch_cpus_1.idleCycles               2193198                       # Total number of cycles that the CPU has spent unscheduled due to idling
system.switch_cpus_1.committedInsts        1000000002                       # Number of Instructions Simulated
system.switch_cpus_1.committedOps          1000000002                       # Number of Ops (including micro ops) Simulated
system.switch_cpus_1.cpi                     3.931870                       # CPI: Cycles Per Instruction
system.switch_cpus_1.cpi_total               3.931870                       # CPI: Total CPI of All Threads
system.switch_cpus_1.ipc                     0.254332                       # IPC: Instructions Per Cycle
system.switch_cpus_1.ipc_total               0.254332                       # IPC: Total IPC of All Threads
system.switch_cpus_1.int_regfile_reads     1819458567                       # number of integer regfile reads
system.switch_cpus_1.int_regfile_writes     832813555                       # number of integer regfile writes
system.switch_cpus_1.fp_regfile_reads       280270557                       # number of floating regfile reads
system.switch_cpus_1.fp_regfile_writes      217262003                       # number of floating regfile writes
system.switch_cpus_1.misc_regfile_reads          1210                       # number of misc regfile reads
system.switch_cpus_1.misc_regfile_writes         1016                       # number of misc regfile writes
system.tol3bus.snoop_filter.tot_requests     87737109                       # Total number of requests made to the snoop filter.
system.tol3bus.snoop_filter.hit_single_requests     43866385                       # Number of requests hitting in the snoop filter with a single holder of the requested data.
system.tol3bus.snoop_filter.hit_multi_requests            0                       # Number of requests hitting in the snoop filter with multiple (>1) holders of the requested data.
system.tol3bus.snoop_filter.tot_snoops          11999                       # Total number of snoops made to the snoop filter.
system.tol3bus.snoop_filter.hit_single_snoops        11999                       # Number of snoops hitting in the snoop filter with a single holder of the requested data.
system.tol3bus.snoop_filter.hit_multi_snoops            0                       # Number of snoops hitting in the snoop filter with multiple (>1) holders of the requested data.
system.tol3bus.pwrStateResidencyTicks::UNDEFINED 74843813312289                       # Cumulative time (in ticks) in various power states
system.tol3bus.trans_dist::ReadResp          32893040                       # Transaction distribution
system.tol3bus.trans_dist::WritebackDirty     30165656                       # Transaction distribution
system.tol3bus.trans_dist::CleanEvict        39814334                       # Transaction distribution
system.tol3bus.trans_dist::UpgradeReq              50                       # Transaction distribution
system.tol3bus.trans_dist::UpgradeResp             50                       # Transaction distribution
system.tol3bus.trans_dist::ReadExReq         10977683                       # Transaction distribution
system.tol3bus.trans_dist::ReadExResp        10977683                       # Transaction distribution
system.tol3bus.trans_dist::ReadSharedReq     32893041                       # Transaction distribution
system.tol3bus.pkt_count_system.cpu.l2.mem_side::system.l3.cpu_side    131607882                       # Packet count per connected master and slave (bytes)
system.tol3bus.pkt_size_system.cpu.l2.mem_side::system.l3.cpu_side   4184336768                       # Cumulative packet size per connected master and slave (bytes)
system.tol3bus.snoops                        26113655                       # Total snoops (count)
system.tol3bus.snoopTraffic                 553991488                       # Total snoop traffic (bytes)
system.tol3bus.snoop_fanout::samples         69984429                       # Request fanout histogram
system.tol3bus.snoop_fanout::mean            0.000171                       # Request fanout histogram
system.tol3bus.snoop_fanout::stdev           0.013093                       # Request fanout histogram
system.tol3bus.snoop_fanout::underflows             0      0.00%      0.00% # Request fanout histogram
system.tol3bus.snoop_fanout::0               69972430     99.98%     99.98% # Request fanout histogram
system.tol3bus.snoop_fanout::1                  11999      0.02%    100.00% # Request fanout histogram
system.tol3bus.snoop_fanout::overflows              0      0.00%    100.00% # Request fanout histogram
system.tol3bus.snoop_fanout::min_value              0                       # Request fanout histogram
system.tol3bus.snoop_fanout::max_value              1                       # Request fanout histogram
system.tol3bus.snoop_fanout::total           69984429                       # Request fanout histogram
system.tol3bus.reqLayer0.occupancy        36379133784                       # Layer occupancy (ticks)
system.tol3bus.reqLayer0.utilization              0.8                       # Layer utilization (%)
system.tol3bus.respLayer0.occupancy       29217918168                       # Layer occupancy (ticks)
system.tol3bus.respLayer0.utilization             0.6                       # Layer utilization (%)

---------- End Simulation Statistics   ----------
