
---------- Begin Simulation Statistics ----------
sim_seconds                                  1.576937                       # Number of seconds simulated
sim_ticks                                1576936544274                       # Number of ticks simulated
final_tick                               118811632976460                       # Number of ticks from beginning of simulation (restored from checkpoints and never reset)
sim_freq                                 1000000000000                       # Frequency of simulated ticks
host_inst_rate                                 641918                       # Simulator instruction rate (inst/s)
host_op_rate                                   641918                       # Simulator op (including micro ops) rate (op/s)
host_tick_rate                              843553338                       # Simulator tick rate (ticks/s)
host_mem_usage                                2589516                       # Number of bytes of host memory used
host_seconds                                  1869.40                       # Real time elapsed on the host
sim_insts                                  1200000007                       # Number of instructions simulated
sim_ops                                    1200000007                       # Number of ops (including micro ops) simulated
system.voltage_domain.voltage                       1                       # Voltage in Volts
system.clk_domain.clock                          1000                       # Clock period in ticks
system.mem_ctrls0.pwrStateResidencyTicks::UNDEFINED 118811632976460                       # Cumulative time (in ticks) in various power states
system.mem_ctrls0.bytes_read::cpu.inst             64                       # Number of bytes read from this memory
system.mem_ctrls0.bytes_read::switch_cpus.inst        21888                       # Number of bytes read from this memory
system.mem_ctrls0.bytes_read::switch_cpus.data    118949568                       # Number of bytes read from this memory
system.mem_ctrls0.bytes_read::switch_cpus_1.inst          384                       # Number of bytes read from this memory
system.mem_ctrls0.bytes_read::switch_cpus_1.data     21593216                       # Number of bytes read from this memory
system.mem_ctrls0.bytes_read::total         140565120                       # Number of bytes read from this memory
system.mem_ctrls0.bytes_inst_read::cpu.inst           64                       # Number of instructions bytes read from this memory
system.mem_ctrls0.bytes_inst_read::switch_cpus.inst        21888                       # Number of instructions bytes read from this memory
system.mem_ctrls0.bytes_inst_read::switch_cpus_1.inst          384                       # Number of instructions bytes read from this memory
system.mem_ctrls0.bytes_inst_read::total        22336                       # Number of instructions bytes read from this memory
system.mem_ctrls0.bytes_written::writebacks     55940480                       # Number of bytes written to this memory
system.mem_ctrls0.bytes_written::total       55940480                       # Number of bytes written to this memory
system.mem_ctrls0.num_reads::cpu.inst               1                       # Number of read requests responded to by this memory
system.mem_ctrls0.num_reads::switch_cpus.inst          342                       # Number of read requests responded to by this memory
system.mem_ctrls0.num_reads::switch_cpus.data      1858587                       # Number of read requests responded to by this memory
system.mem_ctrls0.num_reads::switch_cpus_1.inst            6                       # Number of read requests responded to by this memory
system.mem_ctrls0.num_reads::switch_cpus_1.data       337394                       # Number of read requests responded to by this memory
system.mem_ctrls0.num_reads::total            2196330                       # Number of read requests responded to by this memory
system.mem_ctrls0.num_writes::writebacks       874070                       # Number of write requests responded to by this memory
system.mem_ctrls0.num_writes::total            874070                       # Number of write requests responded to by this memory
system.mem_ctrls0.bw_read::cpu.inst                41                       # Total read bandwidth from this memory (bytes/s)
system.mem_ctrls0.bw_read::switch_cpus.inst        13880                       # Total read bandwidth from this memory (bytes/s)
system.mem_ctrls0.bw_read::switch_cpus.data     75430789                       # Total read bandwidth from this memory (bytes/s)
system.mem_ctrls0.bw_read::switch_cpus_1.inst          244                       # Total read bandwidth from this memory (bytes/s)
system.mem_ctrls0.bw_read::switch_cpus_1.data     13693142                       # Total read bandwidth from this memory (bytes/s)
system.mem_ctrls0.bw_read::total             89138095                       # Total read bandwidth from this memory (bytes/s)
system.mem_ctrls0.bw_inst_read::cpu.inst           41                       # Instruction read bandwidth from this memory (bytes/s)
system.mem_ctrls0.bw_inst_read::switch_cpus.inst        13880                       # Instruction read bandwidth from this memory (bytes/s)
system.mem_ctrls0.bw_inst_read::switch_cpus_1.inst          244                       # Instruction read bandwidth from this memory (bytes/s)
system.mem_ctrls0.bw_inst_read::total           14164                       # Instruction read bandwidth from this memory (bytes/s)
system.mem_ctrls0.bw_write::writebacks       35474148                       # Write bandwidth from this memory (bytes/s)
system.mem_ctrls0.bw_write::total            35474148                       # Write bandwidth from this memory (bytes/s)
system.mem_ctrls0.bw_total::writebacks       35474148                       # Total bandwidth to/from this memory (bytes/s)
system.mem_ctrls0.bw_total::cpu.inst               41                       # Total bandwidth to/from this memory (bytes/s)
system.mem_ctrls0.bw_total::switch_cpus.inst        13880                       # Total bandwidth to/from this memory (bytes/s)
system.mem_ctrls0.bw_total::switch_cpus.data     75430789                       # Total bandwidth to/from this memory (bytes/s)
system.mem_ctrls0.bw_total::switch_cpus_1.inst          244                       # Total bandwidth to/from this memory (bytes/s)
system.mem_ctrls0.bw_total::switch_cpus_1.data     13693142                       # Total bandwidth to/from this memory (bytes/s)
system.mem_ctrls0.bw_total::total           124612243                       # Total bandwidth to/from this memory (bytes/s)
system.mem_ctrls0.readReqs                    2196330                       # Number of read requests accepted
system.mem_ctrls0.writeReqs                    874070                       # Number of write requests accepted
system.mem_ctrls0.readBursts                  2196330                       # Number of DRAM read bursts, including those serviced by the write queue
system.mem_ctrls0.writeBursts                  874070                       # Number of DRAM write bursts, including those merged in the write queue
system.mem_ctrls0.bytesReadDRAM             140563200                       # Total number of bytes read from DRAM
system.mem_ctrls0.bytesReadWrQ                   1920                       # Total number of bytes read from write queue
system.mem_ctrls0.bytesWritten               55938432                       # Total number of bytes written to DRAM
system.mem_ctrls0.bytesReadSys              140565120                       # Total read bytes from the system interface side
system.mem_ctrls0.bytesWrittenSys            55940480                       # Total written bytes from the system interface side
system.mem_ctrls0.servicedByWrQ                    30                       # Number of DRAM read bursts serviced by the write queue
system.mem_ctrls0.mergedWrBursts                    0                       # Number of DRAM write bursts merged with an existing one
system.mem_ctrls0.neitherReadNorWriteReqs            0                       # Number of requests that are neither read nor write
system.mem_ctrls0.perBankRdBursts::0           136816                       # Per bank write bursts
system.mem_ctrls0.perBankRdBursts::1           137373                       # Per bank write bursts
system.mem_ctrls0.perBankRdBursts::2           137885                       # Per bank write bursts
system.mem_ctrls0.perBankRdBursts::3           137056                       # Per bank write bursts
system.mem_ctrls0.perBankRdBursts::4           137846                       # Per bank write bursts
system.mem_ctrls0.perBankRdBursts::5           137026                       # Per bank write bursts
system.mem_ctrls0.perBankRdBursts::6           137864                       # Per bank write bursts
system.mem_ctrls0.perBankRdBursts::7           136934                       # Per bank write bursts
system.mem_ctrls0.perBankRdBursts::8           137313                       # Per bank write bursts
system.mem_ctrls0.perBankRdBursts::9           137534                       # Per bank write bursts
system.mem_ctrls0.perBankRdBursts::10          137111                       # Per bank write bursts
system.mem_ctrls0.perBankRdBursts::11          137454                       # Per bank write bursts
system.mem_ctrls0.perBankRdBursts::12          137467                       # Per bank write bursts
system.mem_ctrls0.perBankRdBursts::13          136339                       # Per bank write bursts
system.mem_ctrls0.perBankRdBursts::14          137036                       # Per bank write bursts
system.mem_ctrls0.perBankRdBursts::15          137246                       # Per bank write bursts
system.mem_ctrls0.perBankWrBursts::0            54576                       # Per bank write bursts
system.mem_ctrls0.perBankWrBursts::1            54335                       # Per bank write bursts
system.mem_ctrls0.perBankWrBursts::2            54646                       # Per bank write bursts
system.mem_ctrls0.perBankWrBursts::3            54579                       # Per bank write bursts
system.mem_ctrls0.perBankWrBursts::4            54462                       # Per bank write bursts
system.mem_ctrls0.perBankWrBursts::5            54590                       # Per bank write bursts
system.mem_ctrls0.perBankWrBursts::6            55303                       # Per bank write bursts
system.mem_ctrls0.perBankWrBursts::7            54537                       # Per bank write bursts
system.mem_ctrls0.perBankWrBursts::8            54761                       # Per bank write bursts
system.mem_ctrls0.perBankWrBursts::9            54810                       # Per bank write bursts
system.mem_ctrls0.perBankWrBursts::10           54720                       # Per bank write bursts
system.mem_ctrls0.perBankWrBursts::11           54560                       # Per bank write bursts
system.mem_ctrls0.perBankWrBursts::12           54793                       # Per bank write bursts
system.mem_ctrls0.perBankWrBursts::13           54529                       # Per bank write bursts
system.mem_ctrls0.perBankWrBursts::14           54354                       # Per bank write bursts
system.mem_ctrls0.perBankWrBursts::15           54483                       # Per bank write bursts
system.mem_ctrls0.numRdRetry                        0                       # Number of times read queue was full causing retry
system.mem_ctrls0.numWrRetry                        0                       # Number of times write queue was full causing retry
system.mem_ctrls0.totGap                 1576936170648                       # Total gap between requests
system.mem_ctrls0.readPktSize::0                    0                       # Read request sizes (log2)
system.mem_ctrls0.readPktSize::1                    0                       # Read request sizes (log2)
system.mem_ctrls0.readPktSize::2                    0                       # Read request sizes (log2)
system.mem_ctrls0.readPktSize::3                    0                       # Read request sizes (log2)
system.mem_ctrls0.readPktSize::4                    0                       # Read request sizes (log2)
system.mem_ctrls0.readPktSize::5                    0                       # Read request sizes (log2)
system.mem_ctrls0.readPktSize::6              2196330                       # Read request sizes (log2)
system.mem_ctrls0.writePktSize::0                   0                       # Write request sizes (log2)
system.mem_ctrls0.writePktSize::1                   0                       # Write request sizes (log2)
system.mem_ctrls0.writePktSize::2                   0                       # Write request sizes (log2)
system.mem_ctrls0.writePktSize::3                   0                       # Write request sizes (log2)
system.mem_ctrls0.writePktSize::4                   0                       # Write request sizes (log2)
system.mem_ctrls0.writePktSize::5                   0                       # Write request sizes (log2)
system.mem_ctrls0.writePktSize::6              874070                       # Write request sizes (log2)
system.mem_ctrls0.rdQLenPdf::0                2107736                       # What read queue length does an incoming req see
system.mem_ctrls0.rdQLenPdf::1                  73408                       # What read queue length does an incoming req see
system.mem_ctrls0.rdQLenPdf::2                  13557                       # What read queue length does an incoming req see
system.mem_ctrls0.rdQLenPdf::3                   1599                       # What read queue length does an incoming req see
system.mem_ctrls0.rdQLenPdf::4                      0                       # What read queue length does an incoming req see
system.mem_ctrls0.rdQLenPdf::5                      0                       # What read queue length does an incoming req see
system.mem_ctrls0.rdQLenPdf::6                      0                       # What read queue length does an incoming req see
system.mem_ctrls0.rdQLenPdf::7                      0                       # What read queue length does an incoming req see
system.mem_ctrls0.rdQLenPdf::8                      0                       # What read queue length does an incoming req see
system.mem_ctrls0.rdQLenPdf::9                      0                       # What read queue length does an incoming req see
system.mem_ctrls0.rdQLenPdf::10                     0                       # What read queue length does an incoming req see
system.mem_ctrls0.rdQLenPdf::11                     0                       # What read queue length does an incoming req see
system.mem_ctrls0.rdQLenPdf::12                     0                       # What read queue length does an incoming req see
system.mem_ctrls0.rdQLenPdf::13                     0                       # What read queue length does an incoming req see
system.mem_ctrls0.rdQLenPdf::14                     0                       # What read queue length does an incoming req see
system.mem_ctrls0.rdQLenPdf::15                     0                       # What read queue length does an incoming req see
system.mem_ctrls0.rdQLenPdf::16                     0                       # What read queue length does an incoming req see
system.mem_ctrls0.rdQLenPdf::17                     0                       # What read queue length does an incoming req see
system.mem_ctrls0.rdQLenPdf::18                     0                       # What read queue length does an incoming req see
system.mem_ctrls0.rdQLenPdf::19                     0                       # What read queue length does an incoming req see
system.mem_ctrls0.rdQLenPdf::20                     0                       # What read queue length does an incoming req see
system.mem_ctrls0.rdQLenPdf::21                     0                       # What read queue length does an incoming req see
system.mem_ctrls0.rdQLenPdf::22                     0                       # What read queue length does an incoming req see
system.mem_ctrls0.rdQLenPdf::23                     0                       # What read queue length does an incoming req see
system.mem_ctrls0.rdQLenPdf::24                     0                       # What read queue length does an incoming req see
system.mem_ctrls0.rdQLenPdf::25                     0                       # What read queue length does an incoming req see
system.mem_ctrls0.rdQLenPdf::26                     0                       # What read queue length does an incoming req see
system.mem_ctrls0.rdQLenPdf::27                     0                       # What read queue length does an incoming req see
system.mem_ctrls0.rdQLenPdf::28                     0                       # What read queue length does an incoming req see
system.mem_ctrls0.rdQLenPdf::29                     0                       # What read queue length does an incoming req see
system.mem_ctrls0.rdQLenPdf::30                     0                       # What read queue length does an incoming req see
system.mem_ctrls0.rdQLenPdf::31                     0                       # What read queue length does an incoming req see
system.mem_ctrls0.wrQLenPdf::0                      2                       # What write queue length does an incoming req see
system.mem_ctrls0.wrQLenPdf::1                      2                       # What write queue length does an incoming req see
system.mem_ctrls0.wrQLenPdf::2                      2                       # What write queue length does an incoming req see
system.mem_ctrls0.wrQLenPdf::3                      2                       # What write queue length does an incoming req see
system.mem_ctrls0.wrQLenPdf::4                      2                       # What write queue length does an incoming req see
system.mem_ctrls0.wrQLenPdf::5                      2                       # What write queue length does an incoming req see
system.mem_ctrls0.wrQLenPdf::6                      2                       # What write queue length does an incoming req see
system.mem_ctrls0.wrQLenPdf::7                      2                       # What write queue length does an incoming req see
system.mem_ctrls0.wrQLenPdf::8                      2                       # What write queue length does an incoming req see
system.mem_ctrls0.wrQLenPdf::9                      2                       # What write queue length does an incoming req see
system.mem_ctrls0.wrQLenPdf::10                     2                       # What write queue length does an incoming req see
system.mem_ctrls0.wrQLenPdf::11                     2                       # What write queue length does an incoming req see
system.mem_ctrls0.wrQLenPdf::12                     2                       # What write queue length does an incoming req see
system.mem_ctrls0.wrQLenPdf::13                     2                       # What write queue length does an incoming req see
system.mem_ctrls0.wrQLenPdf::14                     2                       # What write queue length does an incoming req see
system.mem_ctrls0.wrQLenPdf::15                 42683                       # What write queue length does an incoming req see
system.mem_ctrls0.wrQLenPdf::16                 43441                       # What write queue length does an incoming req see
system.mem_ctrls0.wrQLenPdf::17                 48878                       # What write queue length does an incoming req see
system.mem_ctrls0.wrQLenPdf::18                 49154                       # What write queue length does an incoming req see
system.mem_ctrls0.wrQLenPdf::19                 49153                       # What write queue length does an incoming req see
system.mem_ctrls0.wrQLenPdf::20                 49210                       # What write queue length does an incoming req see
system.mem_ctrls0.wrQLenPdf::21                 49228                       # What write queue length does an incoming req see
system.mem_ctrls0.wrQLenPdf::22                 49393                       # What write queue length does an incoming req see
system.mem_ctrls0.wrQLenPdf::23                 49639                       # What write queue length does an incoming req see
system.mem_ctrls0.wrQLenPdf::24                 49284                       # What write queue length does an incoming req see
system.mem_ctrls0.wrQLenPdf::25                 49269                       # What write queue length does an incoming req see
system.mem_ctrls0.wrQLenPdf::26                 49227                       # What write queue length does an incoming req see
system.mem_ctrls0.wrQLenPdf::27                 49240                       # What write queue length does an incoming req see
system.mem_ctrls0.wrQLenPdf::28                 49261                       # What write queue length does an incoming req see
system.mem_ctrls0.wrQLenPdf::29                 49285                       # What write queue length does an incoming req see
system.mem_ctrls0.wrQLenPdf::30                 49388                       # What write queue length does an incoming req see
system.mem_ctrls0.wrQLenPdf::31                 49159                       # What write queue length does an incoming req see
system.mem_ctrls0.wrQLenPdf::32                 49130                       # What write queue length does an incoming req see
system.mem_ctrls0.wrQLenPdf::33                    17                       # What write queue length does an incoming req see
system.mem_ctrls0.wrQLenPdf::34                     1                       # What write queue length does an incoming req see
system.mem_ctrls0.wrQLenPdf::35                     0                       # What write queue length does an incoming req see
system.mem_ctrls0.wrQLenPdf::36                     0                       # What write queue length does an incoming req see
system.mem_ctrls0.wrQLenPdf::37                     0                       # What write queue length does an incoming req see
system.mem_ctrls0.wrQLenPdf::38                     0                       # What write queue length does an incoming req see
system.mem_ctrls0.wrQLenPdf::39                     0                       # What write queue length does an incoming req see
system.mem_ctrls0.wrQLenPdf::40                     0                       # What write queue length does an incoming req see
system.mem_ctrls0.wrQLenPdf::41                     0                       # What write queue length does an incoming req see
system.mem_ctrls0.wrQLenPdf::42                     0                       # What write queue length does an incoming req see
system.mem_ctrls0.wrQLenPdf::43                     0                       # What write queue length does an incoming req see
system.mem_ctrls0.wrQLenPdf::44                     0                       # What write queue length does an incoming req see
system.mem_ctrls0.wrQLenPdf::45                     0                       # What write queue length does an incoming req see
system.mem_ctrls0.wrQLenPdf::46                     0                       # What write queue length does an incoming req see
system.mem_ctrls0.wrQLenPdf::47                     0                       # What write queue length does an incoming req see
system.mem_ctrls0.wrQLenPdf::48                     0                       # What write queue length does an incoming req see
system.mem_ctrls0.wrQLenPdf::49                     0                       # What write queue length does an incoming req see
system.mem_ctrls0.wrQLenPdf::50                     0                       # What write queue length does an incoming req see
system.mem_ctrls0.wrQLenPdf::51                     0                       # What write queue length does an incoming req see
system.mem_ctrls0.wrQLenPdf::52                     0                       # What write queue length does an incoming req see
system.mem_ctrls0.wrQLenPdf::53                     0                       # What write queue length does an incoming req see
system.mem_ctrls0.wrQLenPdf::54                     0                       # What write queue length does an incoming req see
system.mem_ctrls0.wrQLenPdf::55                     0                       # What write queue length does an incoming req see
system.mem_ctrls0.wrQLenPdf::56                     0                       # What write queue length does an incoming req see
system.mem_ctrls0.wrQLenPdf::57                     0                       # What write queue length does an incoming req see
system.mem_ctrls0.wrQLenPdf::58                     0                       # What write queue length does an incoming req see
system.mem_ctrls0.wrQLenPdf::59                     0                       # What write queue length does an incoming req see
system.mem_ctrls0.wrQLenPdf::60                     0                       # What write queue length does an incoming req see
system.mem_ctrls0.wrQLenPdf::61                     0                       # What write queue length does an incoming req see
system.mem_ctrls0.wrQLenPdf::62                     0                       # What write queue length does an incoming req see
system.mem_ctrls0.wrQLenPdf::63                     0                       # What write queue length does an incoming req see
system.mem_ctrls0.bytesPerActivate::samples      2003083                       # Bytes accessed per row activation
system.mem_ctrls0.bytesPerActivate::mean    98.099404                       # Bytes accessed per row activation
system.mem_ctrls0.bytesPerActivate::gmean    81.022583                       # Bytes accessed per row activation
system.mem_ctrls0.bytesPerActivate::stdev    88.829580                       # Bytes accessed per row activation
system.mem_ctrls0.bytesPerActivate::0-127      1591213     79.44%     79.44% # Bytes accessed per row activation
system.mem_ctrls0.bytesPerActivate::128-255       258143     12.89%     92.33% # Bytes accessed per row activation
system.mem_ctrls0.bytesPerActivate::256-383        77715      3.88%     96.21% # Bytes accessed per row activation
system.mem_ctrls0.bytesPerActivate::384-511        37483      1.87%     98.08% # Bytes accessed per row activation
system.mem_ctrls0.bytesPerActivate::512-639        37879      1.89%     99.97% # Bytes accessed per row activation
system.mem_ctrls0.bytesPerActivate::640-767          499      0.02%     99.99% # Bytes accessed per row activation
system.mem_ctrls0.bytesPerActivate::768-895          128      0.01%    100.00% # Bytes accessed per row activation
system.mem_ctrls0.bytesPerActivate::896-1023           16      0.00%    100.00% # Bytes accessed per row activation
system.mem_ctrls0.bytesPerActivate::1024-1151            7      0.00%    100.00% # Bytes accessed per row activation
system.mem_ctrls0.bytesPerActivate::total      2003083                       # Bytes accessed per row activation
system.mem_ctrls0.rdPerTurnAround::samples        49100                       # Reads before turning the bus around for writes
system.mem_ctrls0.rdPerTurnAround::mean     44.730367                       # Reads before turning the bus around for writes
system.mem_ctrls0.rdPerTurnAround::gmean    42.576519                       # Reads before turning the bus around for writes
system.mem_ctrls0.rdPerTurnAround::stdev   142.164431                       # Reads before turning the bus around for writes
system.mem_ctrls0.rdPerTurnAround::0-1023        49099    100.00%    100.00% # Reads before turning the bus around for writes
system.mem_ctrls0.rdPerTurnAround::30720-31743            1      0.00%    100.00% # Reads before turning the bus around for writes
system.mem_ctrls0.rdPerTurnAround::total        49100                       # Reads before turning the bus around for writes
system.mem_ctrls0.wrPerTurnAround::samples        49100                       # Writes before turning the bus around for reads
system.mem_ctrls0.wrPerTurnAround::mean     17.801181                       # Writes before turning the bus around for reads
system.mem_ctrls0.wrPerTurnAround::gmean    17.786728                       # Writes before turning the bus around for reads
system.mem_ctrls0.wrPerTurnAround::stdev     0.700649                       # Writes before turning the bus around for reads
system.mem_ctrls0.wrPerTurnAround::15               1      0.00%      0.00% # Writes before turning the bus around for reads
system.mem_ctrls0.wrPerTurnAround::16            5705     11.62%     11.62% # Writes before turning the bus around for reads
system.mem_ctrls0.wrPerTurnAround::17             631      1.29%     12.91% # Writes before turning the bus around for reads
system.mem_ctrls0.wrPerTurnAround::18           40615     82.72%     95.63% # Writes before turning the bus around for reads
system.mem_ctrls0.wrPerTurnAround::19            2029      4.13%     99.76% # Writes before turning the bus around for reads
system.mem_ctrls0.wrPerTurnAround::20             106      0.22%     99.97% # Writes before turning the bus around for reads
system.mem_ctrls0.wrPerTurnAround::21              11      0.02%    100.00% # Writes before turning the bus around for reads
system.mem_ctrls0.wrPerTurnAround::22               2      0.00%    100.00% # Writes before turning the bus around for reads
system.mem_ctrls0.wrPerTurnAround::total        49100                       # Writes before turning the bus around for reads
system.mem_ctrls0.totQLat                 60387551011                       # Total ticks spent queuing
system.mem_ctrls0.totMemAccLat           101568176011                       # Total ticks spent from burst creation until serviced by the DRAM
system.mem_ctrls0.totBusLat               10981500000                       # Total ticks spent in databus transfers
system.mem_ctrls0.avgQLat                    27495.13                       # Average queueing delay per DRAM burst
system.mem_ctrls0.avgBusLat                   5000.00                       # Average bus latency per DRAM burst
system.mem_ctrls0.avgMemAccLat               46245.13                       # Average memory access latency per DRAM burst
system.mem_ctrls0.avgRdBW                       89.14                       # Average DRAM read bandwidth in MiByte/s
system.mem_ctrls0.avgWrBW                       35.47                       # Average achieved write bandwidth in MiByte/s
system.mem_ctrls0.avgRdBWSys                    89.14                       # Average system read bandwidth in MiByte/s
system.mem_ctrls0.avgWrBWSys                    35.47                       # Average system write bandwidth in MiByte/s
system.mem_ctrls0.peakBW                     12800.00                       # Theoretical peak bandwidth in MiByte/s
system.mem_ctrls0.busUtil                        0.97                       # Data bus utilization in percentage
system.mem_ctrls0.busUtilRead                    0.70                       # Data bus utilization in percentage for reads
system.mem_ctrls0.busUtilWrite                   0.28                       # Data bus utilization in percentage for writes
system.mem_ctrls0.avgRdQLen                      1.02                       # Average read queue length when enqueuing
system.mem_ctrls0.avgWrQLen                     24.20                       # Average write queue length when enqueuing
system.mem_ctrls0.readRowHits                  873059                       # Number of row buffer hits during reads
system.mem_ctrls0.writeRowHits                 194190                       # Number of row buffer hits during writes
system.mem_ctrls0.readRowHitRate                39.75                       # Row buffer hit rate for reads
system.mem_ctrls0.writeRowHitRate               22.22                       # Row buffer hit rate for writes
system.mem_ctrls0.avgGap                    513593.07                       # Average gap between requests
system.mem_ctrls0.pageHitRate                   34.76                       # Row buffer hit rate, read and write combined
system.mem_ctrls0_0.actEnergy              7148917860                       # Energy for activate commands per rank (pJ)
system.mem_ctrls0_0.preEnergy              3799732365                       # Energy for precharge commands per rank (pJ)
system.mem_ctrls0_0.readEnergy             7845432000                       # Energy for read commands per rank (pJ)
system.mem_ctrls0_0.writeEnergy            2281286160                       # Energy for write commands per rank (pJ)
system.mem_ctrls0_0.refreshEnergy        123291866880.000031                       # Energy for refresh commands per rank (pJ)
system.mem_ctrls0_0.actBackEnergy         67961247630                       # Energy for active background per rank (pJ)
system.mem_ctrls0_0.preBackEnergy          4084583040                       # Energy for precharge background per rank (pJ)
system.mem_ctrls0_0.actPowerDownEnergy   450740054820                       # Energy for active power-down per rank (pJ)
system.mem_ctrls0_0.prePowerDownEnergy   114373356960                       # Energy for precharge power-down per rank (pJ)
system.mem_ctrls0_0.selfRefreshEnergy     40261630770                       # Energy for self refresh per rank (pJ)
system.mem_ctrls0_0.totalEnergy          821821060215                       # Total energy per rank (pJ)
system.mem_ctrls0_0.averagePower           521.150361                       # Core power per rank (mW)
system.mem_ctrls0_0.totalIdleTime        1417192772441                       # Total Idle time Per DRAM Rank
system.mem_ctrls0_0.memoryStateTime::IDLE   5274936162                       # Time in different power states
system.mem_ctrls0_0.memoryStateTime::REF  52252914000                       # Time in different power states
system.mem_ctrls0_0.memoryStateTime::SREF 130876194431                       # Time in different power states
system.mem_ctrls0_0.memoryStateTime::PRE_PDN 297849194107                       # Time in different power states
system.mem_ctrls0_0.memoryStateTime::ACT 102215064831                       # Time in different power states
system.mem_ctrls0_0.memoryStateTime::ACT_PDN 988468240743                       # Time in different power states
system.mem_ctrls0_1.actEnergy              7153137600                       # Energy for activate commands per rank (pJ)
system.mem_ctrls0_1.preEnergy              3801967620                       # Energy for precharge commands per rank (pJ)
system.mem_ctrls0_1.readEnergy             7836150000                       # Energy for read commands per rank (pJ)
system.mem_ctrls0_1.writeEnergy            2281192200                       # Energy for write commands per rank (pJ)
system.mem_ctrls0_1.refreshEnergy        123294940080.000031                       # Energy for refresh commands per rank (pJ)
system.mem_ctrls0_1.actBackEnergy         67808284140                       # Energy for active background per rank (pJ)
system.mem_ctrls0_1.preBackEnergy          4102240800                       # Energy for precharge background per rank (pJ)
system.mem_ctrls0_1.actPowerDownEnergy   449983356450                       # Energy for active power-down per rank (pJ)
system.mem_ctrls0_1.prePowerDownEnergy   114438105120                       # Energy for precharge power-down per rank (pJ)
system.mem_ctrls0_1.selfRefreshEnergy     40828238535                       # Energy for self refresh per rank (pJ)
system.mem_ctrls0_1.totalEnergy          821560267095                       # Total energy per rank (pJ)
system.mem_ctrls0_1.averagePower           520.984982                       # Core power per rank (mW)
system.mem_ctrls0_1.totalIdleTime        1417483113758                       # Total Idle time Per DRAM Rank
system.mem_ctrls0_1.memoryStateTime::IDLE   5322352015                       # Time in different power states
system.mem_ctrls0_1.memoryStateTime::REF  52255624000                       # Time in different power states
system.mem_ctrls0_1.memoryStateTime::SREF 132657018071                       # Time in different power states
system.mem_ctrls0_1.memoryStateTime::PRE_PDN 298018540212                       # Time in different power states
system.mem_ctrls0_1.memoryStateTime::ACT 101874791703                       # Time in different power states
system.mem_ctrls0_1.memoryStateTime::ACT_PDN 986808218273                       # Time in different power states
system.mem_ctrls1.pwrStateResidencyTicks::UNDEFINED 118811632976460                       # Cumulative time (in ticks) in various power states
system.mem_ctrls1.bytes_read::cpu.inst             64                       # Number of bytes read from this memory
system.mem_ctrls1.bytes_read::switch_cpus.inst        22464                       # Number of bytes read from this memory
system.mem_ctrls1.bytes_read::switch_cpus.data    118960000                       # Number of bytes read from this memory
system.mem_ctrls1.bytes_read::switch_cpus_1.inst          320                       # Number of bytes read from this memory
system.mem_ctrls1.bytes_read::switch_cpus_1.data     21570624                       # Number of bytes read from this memory
system.mem_ctrls1.bytes_read::total         140553472                       # Number of bytes read from this memory
system.mem_ctrls1.bytes_inst_read::cpu.inst           64                       # Number of instructions bytes read from this memory
system.mem_ctrls1.bytes_inst_read::switch_cpus.inst        22464                       # Number of instructions bytes read from this memory
system.mem_ctrls1.bytes_inst_read::switch_cpus_1.inst          320                       # Number of instructions bytes read from this memory
system.mem_ctrls1.bytes_inst_read::total        22848                       # Number of instructions bytes read from this memory
system.mem_ctrls1.bytes_written::writebacks     55936960                       # Number of bytes written to this memory
system.mem_ctrls1.bytes_written::total       55936960                       # Number of bytes written to this memory
system.mem_ctrls1.num_reads::cpu.inst               1                       # Number of read requests responded to by this memory
system.mem_ctrls1.num_reads::switch_cpus.inst          351                       # Number of read requests responded to by this memory
system.mem_ctrls1.num_reads::switch_cpus.data      1858750                       # Number of read requests responded to by this memory
system.mem_ctrls1.num_reads::switch_cpus_1.inst            5                       # Number of read requests responded to by this memory
system.mem_ctrls1.num_reads::switch_cpus_1.data       337041                       # Number of read requests responded to by this memory
system.mem_ctrls1.num_reads::total            2196148                       # Number of read requests responded to by this memory
system.mem_ctrls1.num_writes::writebacks       874015                       # Number of write requests responded to by this memory
system.mem_ctrls1.num_writes::total            874015                       # Number of write requests responded to by this memory
system.mem_ctrls1.bw_read::cpu.inst                41                       # Total read bandwidth from this memory (bytes/s)
system.mem_ctrls1.bw_read::switch_cpus.inst        14245                       # Total read bandwidth from this memory (bytes/s)
system.mem_ctrls1.bw_read::switch_cpus.data     75437405                       # Total read bandwidth from this memory (bytes/s)
system.mem_ctrls1.bw_read::switch_cpus_1.inst          203                       # Total read bandwidth from this memory (bytes/s)
system.mem_ctrls1.bw_read::switch_cpus_1.data     13678815                       # Total read bandwidth from this memory (bytes/s)
system.mem_ctrls1.bw_read::total             89130709                       # Total read bandwidth from this memory (bytes/s)
system.mem_ctrls1.bw_inst_read::cpu.inst           41                       # Instruction read bandwidth from this memory (bytes/s)
system.mem_ctrls1.bw_inst_read::switch_cpus.inst        14245                       # Instruction read bandwidth from this memory (bytes/s)
system.mem_ctrls1.bw_inst_read::switch_cpus_1.inst          203                       # Instruction read bandwidth from this memory (bytes/s)
system.mem_ctrls1.bw_inst_read::total           14489                       # Instruction read bandwidth from this memory (bytes/s)
system.mem_ctrls1.bw_write::writebacks       35471916                       # Write bandwidth from this memory (bytes/s)
system.mem_ctrls1.bw_write::total            35471916                       # Write bandwidth from this memory (bytes/s)
system.mem_ctrls1.bw_total::writebacks       35471916                       # Total bandwidth to/from this memory (bytes/s)
system.mem_ctrls1.bw_total::cpu.inst               41                       # Total bandwidth to/from this memory (bytes/s)
system.mem_ctrls1.bw_total::switch_cpus.inst        14245                       # Total bandwidth to/from this memory (bytes/s)
system.mem_ctrls1.bw_total::switch_cpus.data     75437405                       # Total bandwidth to/from this memory (bytes/s)
system.mem_ctrls1.bw_total::switch_cpus_1.inst          203                       # Total bandwidth to/from this memory (bytes/s)
system.mem_ctrls1.bw_total::switch_cpus_1.data     13678815                       # Total bandwidth to/from this memory (bytes/s)
system.mem_ctrls1.bw_total::total           124602624                       # Total bandwidth to/from this memory (bytes/s)
system.mem_ctrls1.readReqs                    2196148                       # Number of read requests accepted
system.mem_ctrls1.writeReqs                    874015                       # Number of write requests accepted
system.mem_ctrls1.readBursts                  2196148                       # Number of DRAM read bursts, including those serviced by the write queue
system.mem_ctrls1.writeBursts                  874015                       # Number of DRAM write bursts, including those merged in the write queue
system.mem_ctrls1.bytesReadDRAM             140551872                       # Total number of bytes read from DRAM
system.mem_ctrls1.bytesReadWrQ                   1600                       # Total number of bytes read from write queue
system.mem_ctrls1.bytesWritten               55934976                       # Total number of bytes written to DRAM
system.mem_ctrls1.bytesReadSys              140553472                       # Total read bytes from the system interface side
system.mem_ctrls1.bytesWrittenSys            55936960                       # Total written bytes from the system interface side
system.mem_ctrls1.servicedByWrQ                    25                       # Number of DRAM read bursts serviced by the write queue
system.mem_ctrls1.mergedWrBursts                    0                       # Number of DRAM write bursts merged with an existing one
system.mem_ctrls1.neitherReadNorWriteReqs            0                       # Number of requests that are neither read nor write
system.mem_ctrls1.perBankRdBursts::0           136870                       # Per bank write bursts
system.mem_ctrls1.perBankRdBursts::1           137652                       # Per bank write bursts
system.mem_ctrls1.perBankRdBursts::2           137544                       # Per bank write bursts
system.mem_ctrls1.perBankRdBursts::3           137034                       # Per bank write bursts
system.mem_ctrls1.perBankRdBursts::4           137985                       # Per bank write bursts
system.mem_ctrls1.perBankRdBursts::5           137102                       # Per bank write bursts
system.mem_ctrls1.perBankRdBursts::6           137750                       # Per bank write bursts
system.mem_ctrls1.perBankRdBursts::7           136824                       # Per bank write bursts
system.mem_ctrls1.perBankRdBursts::8           137307                       # Per bank write bursts
system.mem_ctrls1.perBankRdBursts::9           137651                       # Per bank write bursts
system.mem_ctrls1.perBankRdBursts::10          136975                       # Per bank write bursts
system.mem_ctrls1.perBankRdBursts::11          137524                       # Per bank write bursts
system.mem_ctrls1.perBankRdBursts::12          137332                       # Per bank write bursts
system.mem_ctrls1.perBankRdBursts::13          136285                       # Per bank write bursts
system.mem_ctrls1.perBankRdBursts::14          137124                       # Per bank write bursts
system.mem_ctrls1.perBankRdBursts::15          137164                       # Per bank write bursts
system.mem_ctrls1.perBankWrBursts::0            54484                       # Per bank write bursts
system.mem_ctrls1.perBankWrBursts::1            54317                       # Per bank write bursts
system.mem_ctrls1.perBankWrBursts::2            54594                       # Per bank write bursts
system.mem_ctrls1.perBankWrBursts::3            54658                       # Per bank write bursts
system.mem_ctrls1.perBankWrBursts::4            54604                       # Per bank write bursts
system.mem_ctrls1.perBankWrBursts::5            54546                       # Per bank write bursts
system.mem_ctrls1.perBankWrBursts::6            55224                       # Per bank write bursts
system.mem_ctrls1.perBankWrBursts::7            54462                       # Per bank write bursts
system.mem_ctrls1.perBankWrBursts::8            54714                       # Per bank write bursts
system.mem_ctrls1.perBankWrBursts::9            54970                       # Per bank write bursts
system.mem_ctrls1.perBankWrBursts::10           54633                       # Per bank write bursts
system.mem_ctrls1.perBankWrBursts::11           54592                       # Per bank write bursts
system.mem_ctrls1.perBankWrBursts::12           54719                       # Per bank write bursts
system.mem_ctrls1.perBankWrBursts::13           54559                       # Per bank write bursts
system.mem_ctrls1.perBankWrBursts::14           54505                       # Per bank write bursts
system.mem_ctrls1.perBankWrBursts::15           54403                       # Per bank write bursts
system.mem_ctrls1.numRdRetry                        0                       # Number of times read queue was full causing retry
system.mem_ctrls1.numWrRetry                        0                       # Number of times write queue was full causing retry
system.mem_ctrls1.totGap                 1576936262889                       # Total gap between requests
system.mem_ctrls1.readPktSize::0                    0                       # Read request sizes (log2)
system.mem_ctrls1.readPktSize::1                    0                       # Read request sizes (log2)
system.mem_ctrls1.readPktSize::2                    0                       # Read request sizes (log2)
system.mem_ctrls1.readPktSize::3                    0                       # Read request sizes (log2)
system.mem_ctrls1.readPktSize::4                    0                       # Read request sizes (log2)
system.mem_ctrls1.readPktSize::5                    0                       # Read request sizes (log2)
system.mem_ctrls1.readPktSize::6              2196148                       # Read request sizes (log2)
system.mem_ctrls1.writePktSize::0                   0                       # Write request sizes (log2)
system.mem_ctrls1.writePktSize::1                   0                       # Write request sizes (log2)
system.mem_ctrls1.writePktSize::2                   0                       # Write request sizes (log2)
system.mem_ctrls1.writePktSize::3                   0                       # Write request sizes (log2)
system.mem_ctrls1.writePktSize::4                   0                       # Write request sizes (log2)
system.mem_ctrls1.writePktSize::5                   0                       # Write request sizes (log2)
system.mem_ctrls1.writePktSize::6              874015                       # Write request sizes (log2)
system.mem_ctrls1.rdQLenPdf::0                2107895                       # What read queue length does an incoming req see
system.mem_ctrls1.rdQLenPdf::1                  73345                       # What read queue length does an incoming req see
system.mem_ctrls1.rdQLenPdf::2                  13248                       # What read queue length does an incoming req see
system.mem_ctrls1.rdQLenPdf::3                   1635                       # What read queue length does an incoming req see
system.mem_ctrls1.rdQLenPdf::4                      0                       # What read queue length does an incoming req see
system.mem_ctrls1.rdQLenPdf::5                      0                       # What read queue length does an incoming req see
system.mem_ctrls1.rdQLenPdf::6                      0                       # What read queue length does an incoming req see
system.mem_ctrls1.rdQLenPdf::7                      0                       # What read queue length does an incoming req see
system.mem_ctrls1.rdQLenPdf::8                      0                       # What read queue length does an incoming req see
system.mem_ctrls1.rdQLenPdf::9                      0                       # What read queue length does an incoming req see
system.mem_ctrls1.rdQLenPdf::10                     0                       # What read queue length does an incoming req see
system.mem_ctrls1.rdQLenPdf::11                     0                       # What read queue length does an incoming req see
system.mem_ctrls1.rdQLenPdf::12                     0                       # What read queue length does an incoming req see
system.mem_ctrls1.rdQLenPdf::13                     0                       # What read queue length does an incoming req see
system.mem_ctrls1.rdQLenPdf::14                     0                       # What read queue length does an incoming req see
system.mem_ctrls1.rdQLenPdf::15                     0                       # What read queue length does an incoming req see
system.mem_ctrls1.rdQLenPdf::16                     0                       # What read queue length does an incoming req see
system.mem_ctrls1.rdQLenPdf::17                     0                       # What read queue length does an incoming req see
system.mem_ctrls1.rdQLenPdf::18                     0                       # What read queue length does an incoming req see
system.mem_ctrls1.rdQLenPdf::19                     0                       # What read queue length does an incoming req see
system.mem_ctrls1.rdQLenPdf::20                     0                       # What read queue length does an incoming req see
system.mem_ctrls1.rdQLenPdf::21                     0                       # What read queue length does an incoming req see
system.mem_ctrls1.rdQLenPdf::22                     0                       # What read queue length does an incoming req see
system.mem_ctrls1.rdQLenPdf::23                     0                       # What read queue length does an incoming req see
system.mem_ctrls1.rdQLenPdf::24                     0                       # What read queue length does an incoming req see
system.mem_ctrls1.rdQLenPdf::25                     0                       # What read queue length does an incoming req see
system.mem_ctrls1.rdQLenPdf::26                     0                       # What read queue length does an incoming req see
system.mem_ctrls1.rdQLenPdf::27                     0                       # What read queue length does an incoming req see
system.mem_ctrls1.rdQLenPdf::28                     0                       # What read queue length does an incoming req see
system.mem_ctrls1.rdQLenPdf::29                     0                       # What read queue length does an incoming req see
system.mem_ctrls1.rdQLenPdf::30                     0                       # What read queue length does an incoming req see
system.mem_ctrls1.rdQLenPdf::31                     0                       # What read queue length does an incoming req see
system.mem_ctrls1.wrQLenPdf::0                      2                       # What write queue length does an incoming req see
system.mem_ctrls1.wrQLenPdf::1                      2                       # What write queue length does an incoming req see
system.mem_ctrls1.wrQLenPdf::2                      2                       # What write queue length does an incoming req see
system.mem_ctrls1.wrQLenPdf::3                      2                       # What write queue length does an incoming req see
system.mem_ctrls1.wrQLenPdf::4                      2                       # What write queue length does an incoming req see
system.mem_ctrls1.wrQLenPdf::5                      2                       # What write queue length does an incoming req see
system.mem_ctrls1.wrQLenPdf::6                      2                       # What write queue length does an incoming req see
system.mem_ctrls1.wrQLenPdf::7                      2                       # What write queue length does an incoming req see
system.mem_ctrls1.wrQLenPdf::8                      2                       # What write queue length does an incoming req see
system.mem_ctrls1.wrQLenPdf::9                      2                       # What write queue length does an incoming req see
system.mem_ctrls1.wrQLenPdf::10                     2                       # What write queue length does an incoming req see
system.mem_ctrls1.wrQLenPdf::11                     2                       # What write queue length does an incoming req see
system.mem_ctrls1.wrQLenPdf::12                     2                       # What write queue length does an incoming req see
system.mem_ctrls1.wrQLenPdf::13                     2                       # What write queue length does an incoming req see
system.mem_ctrls1.wrQLenPdf::14                     2                       # What write queue length does an incoming req see
system.mem_ctrls1.wrQLenPdf::15                 42796                       # What write queue length does an incoming req see
system.mem_ctrls1.wrQLenPdf::16                 43546                       # What write queue length does an incoming req see
system.mem_ctrls1.wrQLenPdf::17                 48852                       # What write queue length does an incoming req see
system.mem_ctrls1.wrQLenPdf::18                 49127                       # What write queue length does an incoming req see
system.mem_ctrls1.wrQLenPdf::19                 49151                       # What write queue length does an incoming req see
system.mem_ctrls1.wrQLenPdf::20                 49148                       # What write queue length does an incoming req see
system.mem_ctrls1.wrQLenPdf::21                 49199                       # What write queue length does an incoming req see
system.mem_ctrls1.wrQLenPdf::22                 49389                       # What write queue length does an incoming req see
system.mem_ctrls1.wrQLenPdf::23                 49668                       # What write queue length does an incoming req see
system.mem_ctrls1.wrQLenPdf::24                 49296                       # What write queue length does an incoming req see
system.mem_ctrls1.wrQLenPdf::25                 49234                       # What write queue length does an incoming req see
system.mem_ctrls1.wrQLenPdf::26                 49223                       # What write queue length does an incoming req see
system.mem_ctrls1.wrQLenPdf::27                 49213                       # What write queue length does an incoming req see
system.mem_ctrls1.wrQLenPdf::28                 49263                       # What write queue length does an incoming req see
system.mem_ctrls1.wrQLenPdf::29                 49261                       # What write queue length does an incoming req see
system.mem_ctrls1.wrQLenPdf::30                 49342                       # What write queue length does an incoming req see
system.mem_ctrls1.wrQLenPdf::31                 49148                       # What write queue length does an incoming req see
system.mem_ctrls1.wrQLenPdf::32                 49115                       # What write queue length does an incoming req see
system.mem_ctrls1.wrQLenPdf::33                    13                       # What write queue length does an incoming req see
system.mem_ctrls1.wrQLenPdf::34                     1                       # What write queue length does an incoming req see
system.mem_ctrls1.wrQLenPdf::35                     0                       # What write queue length does an incoming req see
system.mem_ctrls1.wrQLenPdf::36                     0                       # What write queue length does an incoming req see
system.mem_ctrls1.wrQLenPdf::37                     0                       # What write queue length does an incoming req see
system.mem_ctrls1.wrQLenPdf::38                     0                       # What write queue length does an incoming req see
system.mem_ctrls1.wrQLenPdf::39                     0                       # What write queue length does an incoming req see
system.mem_ctrls1.wrQLenPdf::40                     0                       # What write queue length does an incoming req see
system.mem_ctrls1.wrQLenPdf::41                     0                       # What write queue length does an incoming req see
system.mem_ctrls1.wrQLenPdf::42                     0                       # What write queue length does an incoming req see
system.mem_ctrls1.wrQLenPdf::43                     0                       # What write queue length does an incoming req see
system.mem_ctrls1.wrQLenPdf::44                     0                       # What write queue length does an incoming req see
system.mem_ctrls1.wrQLenPdf::45                     0                       # What write queue length does an incoming req see
system.mem_ctrls1.wrQLenPdf::46                     0                       # What write queue length does an incoming req see
system.mem_ctrls1.wrQLenPdf::47                     0                       # What write queue length does an incoming req see
system.mem_ctrls1.wrQLenPdf::48                     0                       # What write queue length does an incoming req see
system.mem_ctrls1.wrQLenPdf::49                     0                       # What write queue length does an incoming req see
system.mem_ctrls1.wrQLenPdf::50                     0                       # What write queue length does an incoming req see
system.mem_ctrls1.wrQLenPdf::51                     0                       # What write queue length does an incoming req see
system.mem_ctrls1.wrQLenPdf::52                     0                       # What write queue length does an incoming req see
system.mem_ctrls1.wrQLenPdf::53                     0                       # What write queue length does an incoming req see
system.mem_ctrls1.wrQLenPdf::54                     0                       # What write queue length does an incoming req see
system.mem_ctrls1.wrQLenPdf::55                     0                       # What write queue length does an incoming req see
system.mem_ctrls1.wrQLenPdf::56                     0                       # What write queue length does an incoming req see
system.mem_ctrls1.wrQLenPdf::57                     0                       # What write queue length does an incoming req see
system.mem_ctrls1.wrQLenPdf::58                     0                       # What write queue length does an incoming req see
system.mem_ctrls1.wrQLenPdf::59                     0                       # What write queue length does an incoming req see
system.mem_ctrls1.wrQLenPdf::60                     0                       # What write queue length does an incoming req see
system.mem_ctrls1.wrQLenPdf::61                     0                       # What write queue length does an incoming req see
system.mem_ctrls1.wrQLenPdf::62                     0                       # What write queue length does an incoming req see
system.mem_ctrls1.wrQLenPdf::63                     0                       # What write queue length does an incoming req see
system.mem_ctrls1.bytesPerActivate::samples      2002793                       # Bytes accessed per row activation
system.mem_ctrls1.bytesPerActivate::mean    98.106386                       # Bytes accessed per row activation
system.mem_ctrls1.bytesPerActivate::gmean    81.034185                       # Bytes accessed per row activation
system.mem_ctrls1.bytesPerActivate::stdev    88.805012                       # Bytes accessed per row activation
system.mem_ctrls1.bytesPerActivate::0-127      1590678     79.42%     79.42% # Bytes accessed per row activation
system.mem_ctrls1.bytesPerActivate::128-255       258481     12.91%     92.33% # Bytes accessed per row activation
system.mem_ctrls1.bytesPerActivate::256-383        77771      3.88%     96.21% # Bytes accessed per row activation
system.mem_ctrls1.bytesPerActivate::384-511        37278      1.86%     98.07% # Bytes accessed per row activation
system.mem_ctrls1.bytesPerActivate::512-639        37902      1.89%     99.97% # Bytes accessed per row activation
system.mem_ctrls1.bytesPerActivate::640-767          499      0.02%     99.99% # Bytes accessed per row activation
system.mem_ctrls1.bytesPerActivate::768-895          163      0.01%    100.00% # Bytes accessed per row activation
system.mem_ctrls1.bytesPerActivate::896-1023           10      0.00%    100.00% # Bytes accessed per row activation
system.mem_ctrls1.bytesPerActivate::1024-1151           11      0.00%    100.00% # Bytes accessed per row activation
system.mem_ctrls1.bytesPerActivate::total      2002793                       # Bytes accessed per row activation
system.mem_ctrls1.rdPerTurnAround::samples        49083                       # Reads before turning the bus around for writes
system.mem_ctrls1.rdPerTurnAround::mean     44.742233                       # Reads before turning the bus around for writes
system.mem_ctrls1.rdPerTurnAround::gmean    42.573859                       # Reads before turning the bus around for writes
system.mem_ctrls1.rdPerTurnAround::stdev   141.872064                       # Reads before turning the bus around for writes
system.mem_ctrls1.rdPerTurnAround::0-1023        49082    100.00%    100.00% # Reads before turning the bus around for writes
system.mem_ctrls1.rdPerTurnAround::30720-31743            1      0.00%    100.00% # Reads before turning the bus around for writes
system.mem_ctrls1.rdPerTurnAround::total        49083                       # Reads before turning the bus around for writes
system.mem_ctrls1.wrPerTurnAround::samples        49083                       # Writes before turning the bus around for reads
system.mem_ctrls1.wrPerTurnAround::mean     17.806247                       # Writes before turning the bus around for reads
system.mem_ctrls1.wrPerTurnAround::gmean    17.792088                       # Writes before turning the bus around for reads
system.mem_ctrls1.wrPerTurnAround::stdev     0.693379                       # Writes before turning the bus around for reads
system.mem_ctrls1.wrPerTurnAround::16            5563     11.33%     11.33% # Writes before turning the bus around for reads
system.mem_ctrls1.wrPerTurnAround::17             656      1.34%     12.67% # Writes before turning the bus around for reads
system.mem_ctrls1.wrPerTurnAround::18           40715     82.95%     95.62% # Writes before turning the bus around for reads
system.mem_ctrls1.wrPerTurnAround::19            2033      4.14%     99.76% # Writes before turning the bus around for reads
system.mem_ctrls1.wrPerTurnAround::20             109      0.22%     99.99% # Writes before turning the bus around for reads
system.mem_ctrls1.wrPerTurnAround::21               7      0.01%    100.00% # Writes before turning the bus around for reads
system.mem_ctrls1.wrPerTurnAround::total        49083                       # Writes before turning the bus around for reads
system.mem_ctrls1.totQLat                 60191707252                       # Total ticks spent queuing
system.mem_ctrls1.totMemAccLat           101369013502                       # Total ticks spent from burst creation until serviced by the DRAM
system.mem_ctrls1.totBusLat               10980615000                       # Total ticks spent in databus transfers
system.mem_ctrls1.avgQLat                    27408.17                       # Average queueing delay per DRAM burst
system.mem_ctrls1.avgBusLat                   5000.00                       # Average bus latency per DRAM burst
system.mem_ctrls1.avgMemAccLat               46158.17                       # Average memory access latency per DRAM burst
system.mem_ctrls1.avgRdBW                       89.13                       # Average DRAM read bandwidth in MiByte/s
system.mem_ctrls1.avgWrBW                       35.47                       # Average achieved write bandwidth in MiByte/s
system.mem_ctrls1.avgRdBWSys                    89.13                       # Average system read bandwidth in MiByte/s
system.mem_ctrls1.avgWrBWSys                    35.47                       # Average system write bandwidth in MiByte/s
system.mem_ctrls1.peakBW                     12800.00                       # Theoretical peak bandwidth in MiByte/s
system.mem_ctrls1.busUtil                        0.97                       # Data bus utilization in percentage
system.mem_ctrls1.busUtilRead                    0.70                       # Data bus utilization in percentage for reads
system.mem_ctrls1.busUtilWrite                   0.28                       # Data bus utilization in percentage for writes
system.mem_ctrls1.avgRdQLen                      1.02                       # Average read queue length when enqueuing
system.mem_ctrls1.avgWrQLen                     24.20                       # Average write queue length when enqueuing
system.mem_ctrls1.readRowHits                  873355                       # Number of row buffer hits during reads
system.mem_ctrls1.writeRowHits                 193958                       # Number of row buffer hits during writes
system.mem_ctrls1.readRowHitRate                39.77                       # Row buffer hit rate for reads
system.mem_ctrls1.writeRowHitRate               22.19                       # Row buffer hit rate for writes
system.mem_ctrls1.avgGap                    513632.75                       # Average gap between requests
system.mem_ctrls1.pageHitRate                   34.76                       # Row buffer hit rate, read and write combined
system.mem_ctrls1_0.actEnergy              7146318900                       # Energy for activate commands per rank (pJ)
system.mem_ctrls1_0.preEnergy              3798354780                       # Energy for precharge commands per rank (pJ)
system.mem_ctrls1_0.readEnergy             7845153540                       # Energy for read commands per rank (pJ)
system.mem_ctrls1_0.writeEnergy            2280560580                       # Energy for write commands per rank (pJ)
system.mem_ctrls1_0.refreshEnergy        123304159680.000031                       # Energy for refresh commands per rank (pJ)
system.mem_ctrls1_0.actBackEnergy         68307510660                       # Energy for active background per rank (pJ)
system.mem_ctrls1_0.preBackEnergy          4076959680                       # Energy for precharge background per rank (pJ)
system.mem_ctrls1_0.actPowerDownEnergy   450593585910                       # Energy for active power-down per rank (pJ)
system.mem_ctrls1_0.prePowerDownEnergy   114420461760                       # Energy for precharge power-down per rank (pJ)
system.mem_ctrls1_0.selfRefreshEnergy     40102441335                       # Energy for self refresh per rank (pJ)
system.mem_ctrls1_0.totalEnergy          821907389445                       # Total energy per rank (pJ)
system.mem_ctrls1_0.averagePower           521.205109                       # Core power per rank (mW)
system.mem_ctrls1_0.totalIdleTime        1416453331263                       # Total Idle time Per DRAM Rank
system.mem_ctrls1_0.memoryStateTime::IDLE   5253379484                       # Time in different power states
system.mem_ctrls1_0.memoryStateTime::REF  52258000000                       # Time in different power states
system.mem_ctrls1_0.memoryStateTime::SREF 130337625999                       # Time in different power states
system.mem_ctrls1_0.memoryStateTime::PRE_PDN 297967769937                       # Time in different power states
system.mem_ctrls1_0.memoryStateTime::ACT 102971690002                       # Time in different power states
system.mem_ctrls1_0.memoryStateTime::ACT_PDN 988148078852                       # Time in different power states
system.mem_ctrls1_1.actEnergy              7153630260                       # Energy for activate commands per rank (pJ)
system.mem_ctrls1_1.preEnergy              3802244655                       # Energy for precharge commands per rank (pJ)
system.mem_ctrls1_1.readEnergy             7835164680                       # Energy for read commands per rank (pJ)
system.mem_ctrls1_1.writeEnergy            2281635900                       # Energy for write commands per rank (pJ)
system.mem_ctrls1_1.refreshEnergy        123198441600.000031                       # Energy for refresh commands per rank (pJ)
system.mem_ctrls1_1.actBackEnergy         67748101260                       # Energy for active background per rank (pJ)
system.mem_ctrls1_1.preBackEnergy          4095755520                       # Energy for precharge background per rank (pJ)
system.mem_ctrls1_1.actPowerDownEnergy   449881521960                       # Energy for active power-down per rank (pJ)
system.mem_ctrls1_1.prePowerDownEnergy   114350366880                       # Energy for precharge power-down per rank (pJ)
system.mem_ctrls1_1.selfRefreshEnergy     40924438815                       # Energy for self refresh per rank (pJ)
system.mem_ctrls1_1.totalEnergy          821304090420                       # Total energy per rank (pJ)
system.mem_ctrls1_1.averagePower           520.822532                       # Core power per rank (mW)
system.mem_ctrls1_1.totalIdleTime        1417625257814                       # Total Idle time Per DRAM Rank
system.mem_ctrls1_1.memoryStateTime::IDLE   5310065458                       # Time in different power states
system.mem_ctrls1_1.memoryStateTime::REF  52214396000                       # Time in different power states
system.mem_ctrls1_1.memoryStateTime::SREF 133257505152                       # Time in different power states
system.mem_ctrls1_1.memoryStateTime::PRE_PDN 297790513356                       # Time in different power states
system.mem_ctrls1_1.memoryStateTime::ACT 101786731380                       # Time in different power states
system.mem_ctrls1_1.memoryStateTime::ACT_PDN 986577332928                       # Time in different power states
system.pwrStateResidencyTicks::UNDEFINED 118811632976460                       # Cumulative time (in ticks) in various power states
system.cpu.branchPred.lookups                       0                       # Number of BP lookups
system.cpu.branchPred.condPredicted                 0                       # Number of conditional branches predicted
system.cpu.branchPred.condIncorrect                 0                       # Number of conditional branches incorrect
system.cpu.branchPred.BTBLookups                    0                       # Number of BTB lookups
system.cpu.branchPred.BTBHits                       0                       # Number of BTB hits
system.cpu.branchPred.BTBCorrect                    0                       # Number of correct BTB predictions (this stat may not work properly.
system.cpu.branchPred.BTBHitPct                   nan                       # BTB Hit Percentage
system.cpu.branchPred.usedRAS                       0                       # Number of times the RAS was used to get a target.
system.cpu.branchPred.RASInCorrect                  0                       # Number of incorrect RAS predictions.
system.cpu.branchPred.indirectLookups               0                       # Number of indirect predictor lookups.
system.cpu.branchPred.indirectHits                  0                       # Number of indirect target hits.
system.cpu.branchPred.indirectMisses                0                       # Number of indirect misses.
system.cpu.branchPredindirectMispredicted            0                       # Number of mispredicted indirect branches.
system.cpu_voltage_domain.voltage                   1                       # Voltage in Volts
system.cpu_clk_domain.clock                       333                       # Clock period in ticks
system.cpu.dtb.fetch_hits                           0                       # ITB hits
system.cpu.dtb.fetch_misses                         0                       # ITB misses
system.cpu.dtb.fetch_acv                            0                       # ITB acv
system.cpu.dtb.fetch_accesses                       0                       # ITB accesses
system.cpu.dtb.read_hits                            0                       # DTB read hits
system.cpu.dtb.read_misses                          0                       # DTB read misses
system.cpu.dtb.read_acv                             0                       # DTB read access violations
system.cpu.dtb.read_accesses                        0                       # DTB read accesses
system.cpu.dtb.write_hits                           0                       # DTB write hits
system.cpu.dtb.write_misses                         0                       # DTB write misses
system.cpu.dtb.write_acv                            0                       # DTB write access violations
system.cpu.dtb.write_accesses                       0                       # DTB write accesses
system.cpu.dtb.data_hits                            0                       # DTB hits
system.cpu.dtb.data_misses                          0                       # DTB misses
system.cpu.dtb.data_acv                             0                       # DTB access violations
system.cpu.dtb.data_accesses                        0                       # DTB accesses
system.cpu.itb.fetch_hits                           3                       # ITB hits
system.cpu.itb.fetch_misses                         0                       # ITB misses
system.cpu.itb.fetch_acv                            0                       # ITB acv
system.cpu.itb.fetch_accesses                       3                       # ITB accesses
system.cpu.itb.read_hits                            0                       # DTB read hits
system.cpu.itb.read_misses                          0                       # DTB read misses
system.cpu.itb.read_acv                             0                       # DTB read access violations
system.cpu.itb.read_accesses                        0                       # DTB read accesses
system.cpu.itb.write_hits                           0                       # DTB write hits
system.cpu.itb.write_misses                         0                       # DTB write misses
system.cpu.itb.write_acv                            0                       # DTB write access violations
system.cpu.itb.write_accesses                       0                       # DTB write accesses
system.cpu.itb.data_hits                            0                       # DTB hits
system.cpu.itb.data_misses                          0                       # DTB misses
system.cpu.itb.data_acv                             0                       # DTB access violations
system.cpu.itb.data_accesses                        0                       # DTB accesses
system.cpu.workload.num_syscalls                    0                       # Number of system calls
system.cpu.pwrStateResidencyTicks::ON    1576936544274                       # Cumulative time (in ticks) in various power states
system.cpu.numCycles                              496                       # number of cpu cycles simulated
system.cpu.numWorkItemsStarted                      0                       # number of work items this cpu started
system.cpu.numWorkItemsCompleted                    0                       # number of work items this cpu completed
system.cpu.fetch.icacheStallCycles                 23                       # Number of cycles fetch is stalled on an Icache miss
system.cpu.fetch.Insts                              7                       # Number of instructions fetch has processed
system.cpu.fetch.Cycles                             1                       # Number of cycles fetch has run and was not squashing or blocked
system.cpu.fetch.SquashCycles                       3                       # Number of cycles fetch has spent squashing
system.cpu.fetch.PendingDrainCycles                 3                       # Number of cycles fetch has spent waiting on pipes to drain
system.cpu.fetch.CacheLines                         3                       # Number of cache lines fetched
system.cpu.fetch.IcacheSquashes                     2                       # Number of outstanding Icache misses that were squashed
system.cpu.fetch.rateDist::samples                 28                       # Number of instructions fetched each cycle (Total)
system.cpu.fetch.rateDist::mean              0.250000                       # Number of instructions fetched each cycle (Total)
system.cpu.fetch.rateDist::stdev             1.322876                       # Number of instructions fetched each cycle (Total)
system.cpu.fetch.rateDist::underflows               0      0.00%      0.00% # Number of instructions fetched each cycle (Total)
system.cpu.fetch.rateDist::0                       27     96.43%     96.43% # Number of instructions fetched each cycle (Total)
system.cpu.fetch.rateDist::1                        0      0.00%     96.43% # Number of instructions fetched each cycle (Total)
system.cpu.fetch.rateDist::2                        0      0.00%     96.43% # Number of instructions fetched each cycle (Total)
system.cpu.fetch.rateDist::3                        0      0.00%     96.43% # Number of instructions fetched each cycle (Total)
system.cpu.fetch.rateDist::4                        0      0.00%     96.43% # Number of instructions fetched each cycle (Total)
system.cpu.fetch.rateDist::5                        0      0.00%     96.43% # Number of instructions fetched each cycle (Total)
system.cpu.fetch.rateDist::6                        0      0.00%     96.43% # Number of instructions fetched each cycle (Total)
system.cpu.fetch.rateDist::7                        1      3.57%    100.00% # Number of instructions fetched each cycle (Total)
system.cpu.fetch.rateDist::8                        0      0.00%    100.00% # Number of instructions fetched each cycle (Total)
system.cpu.fetch.rateDist::overflows                0      0.00%    100.00% # Number of instructions fetched each cycle (Total)
system.cpu.fetch.rateDist::min_value                0                       # Number of instructions fetched each cycle (Total)
system.cpu.fetch.rateDist::max_value                7                       # Number of instructions fetched each cycle (Total)
system.cpu.fetch.rateDist::total                   28                       # Number of instructions fetched each cycle (Total)
system.cpu.fetch.branchRate                         0                       # Number of branch fetches per cycle
system.cpu.fetch.rate                        0.014113                       # Number of inst fetches per cycle
system.cpu.decode.IdleCycles                       25                       # Number of cycles decode is idle
[...]
system.switch_cpus_1.iq.fu_busy_rate         0.124677                       # FU busy rate (busy events/executed inst)
system.switch_cpus_1.iq.int_inst_queue_reads    425810210                       # Number of integer instruction queue reads
system.switch_cpus_1.iq.int_inst_queue_writes     88302875                       # Number of integer instruction queue writes
system.switch_cpus_1.iq.int_inst_queue_wakeup_accesses     82016119                       # Number of integer instruction queue wakeup accesses
system.switch_cpus_1.iq.fp_inst_queue_reads    277274368                       # Number of floating instruction queue reads
system.switch_cpus_1.iq.fp_inst_queue_writes    139210825                       # Number of floating instruction queue writes
system.switch_cpus_1.iq.fp_inst_queue_wakeup_accesses    125976164                       # Number of floating instruction queue wakeup accesses
system.switch_cpus_1.iq.int_alu_accesses     84662689                       # Number of integer alu accesses
system.switch_cpus_1.iq.fp_alu_accesses     150495895                       # Number of floating point alu accesses
system.switch_cpus_1.iew.lsq.thread0.forwLoads      1422384                       # Number of loads that had data forwarded from stores
system.switch_cpus_1.iew.lsq.thread0.invAddrLoads            0                       # Number of loads ignored due to an invalid address
system.switch_cpus_1.iew.lsq.thread0.squashedLoads      3337305                       # Number of loads squashed
system.switch_cpus_1.iew.lsq.thread0.ignoredResponses           54                       # Number of memory responses ignored because the instruction is squashed
system.switch_cpus_1.iew.lsq.thread0.memOrderViolation         1767                       # Number of memory ordering violations
system.switch_cpus_1.iew.lsq.thread0.squashedStores       796370                       # Number of stores squashed
system.switch_cpus_1.iew.lsq.thread0.invAddrSwpfs            0                       # Number of software prefetches ignored due to an invalid address
system.switch_cpus_1.iew.lsq.thread0.blockedLoads            0                       # Number of blocked loads due to partial load-store forwarding
system.switch_cpus_1.iew.lsq.thread0.rescheduledLoads            0                       # Number of loads that were rescheduled
system.switch_cpus_1.iew.lsq.thread0.cacheBlocked       309104                       # Number of times an access to memory failed due to the cache being blocked
system.switch_cpus_1.iew.iewIdleCycles              0                       # Number of cycles IEW is idle
system.switch_cpus_1.iew.iewSquashCycles       140419                       # Number of cycles IEW is squashing
system.switch_cpus_1.iew.iewBlockCycles      60000000                       # Number of cycles IEW is blocking
system.switch_cpus_1.iew.iewUnblockCycles     17329503                       # Number of cycles IEW is unblocking
system.switch_cpus_1.iew.iewDispatchedInsts    213935344                       # Number of instructions dispatched to IQ
system.switch_cpus_1.iew.iewDispSquashedInsts          604                       # Number of squashed instructions skipped by dispatch
system.switch_cpus_1.iew.iewDispLoadInsts     44137354                       # Number of dispatched load instructions
system.switch_cpus_1.iew.iewDispStoreInsts     13325412                       # Number of dispatched store instructions
system.switch_cpus_1.iew.iewDispNonSpecInsts            0                       # Number of dispatched non-speculative instructions
system.switch_cpus_1.iew.iewIQFullEvents       892748                       # Number of times the IQ has become full, causing a stall
system.switch_cpus_1.iew.iewLSQFullEvents     16196748                       # Number of times the LSQ has become full, causing a stall
system.switch_cpus_1.iew.memOrderViolationEvents         1767                       # Number of memory order violations
system.switch_cpus_1.iew.predictedTakenIncorrect          548                       # Number of branches that were predicted taken incorrectly
system.switch_cpus_1.iew.predictedNotTakenIncorrect        15426                       # Number of branches that were predicted not taken incorrectly
system.switch_cpus_1.iew.branchMispredicts        15974                       # Number of branch mispredicts detected at execute
system.switch_cpus_1.iew.iewExecutedInsts    208883463                       # Number of executed instructions
system.switch_cpus_1.iew.iewExecLoadInsts     44107142                       # Number of load instructions executed
system.switch_cpus_1.iew.iewExecSquashedInsts       206344                       # Number of squashed instructions skipped in execute
system.switch_cpus_1.iew.exec_swp                   0                       # number of swp insts executed
system.switch_cpus_1.iew.exec_nop              179340                       # number of nop insts executed
system.switch_cpus_1.iew.exec_refs           57061134                       # number of memory reference insts executed
system.switch_cpus_1.iew.exec_branches        1499267                       # Number of branches executed
system.switch_cpus_1.iew.exec_stores         12953992                       # Number of stores executed
system.switch_cpus_1.iew.exec_rate           0.807070                       # Inst execution rate
system.switch_cpus_1.iew.wb_sent            208445444                       # cumulative count of insts sent to commit
system.switch_cpus_1.iew.wb_count           207992283                       # cumulative count of insts written-back
system.switch_cpus_1.iew.wb_producers       138512224                       # num instructions producing a value
system.switch_cpus_1.iew.wb_consumers       165936998                       # num instructions consuming a value
system.switch_cpus_1.iew.wb_rate             0.803626                       # insts written-back per cycle
system.switch_cpus_1.iew.wb_fanout           0.834728                       # average fanout of values written-back
system.switch_cpus_1.commit.commitSquashedInsts     11081768                       # The number of squashed insts skipped by commit
system.switch_cpus_1.commit.branchMispredicts        15480                       # The number of times a branch was mispredicted
system.switch_cpus_1.commit.committed_per_cycle::samples    257378069                       # Number of insts commited each cycle
system.switch_cpus_1.commit.committed_per_cycle::mean     0.777741                       # Number of insts commited each cycle
system.switch_cpus_1.commit.committed_per_cycle::stdev     2.200573                       # Number of insts commited each cycle
system.switch_cpus_1.commit.committed_per_cycle::underflows            0      0.00%      0.00% # Number of insts commited each cycle
system.switch_cpus_1.commit.committed_per_cycle::0    222474481     86.44%     86.44% # Number of insts commited each cycle
system.switch_cpus_1.commit.committed_per_cycle::1      3953037      1.54%     87.97% # Number of insts commited each cycle
system.switch_cpus_1.commit.committed_per_cycle::2      2991552      1.16%     89.14% # Number of insts commited each cycle
system.switch_cpus_1.commit.committed_per_cycle::3      2720813      1.06%     90.19% # Number of insts commited each cycle
system.switch_cpus_1.commit.committed_per_cycle::4      2420697      0.94%     91.13% # Number of insts commited each cycle
system.switch_cpus_1.commit.committed_per_cycle::5      2007096      0.78%     91.91% # Number of insts commited each cycle
system.switch_cpus_1.commit.committed_per_cycle::6      1379710      0.54%     92.45% # Number of insts commited each cycle
system.switch_cpus_1.commit.committed_per_cycle::7      1367116      0.53%     92.98% # Number of insts commited each cycle
system.switch_cpus_1.commit.committed_per_cycle::8     18063567      7.02%    100.00% # Number of insts commited each cycle
system.switch_cpus_1.commit.committed_per_cycle::overflows            0      0.00%    100.00% # Number of insts commited each cycle
system.switch_cpus_1.commit.committed_per_cycle::min_value            0                       # Number of insts commited each cycle
system.switch_cpus_1.commit.committed_per_cycle::max_value            8                       # Number of insts commited each cycle
system.switch_cpus_1.commit.committed_per_cycle::total    257378069                       # Number of insts commited each cycle
system.switch_cpus_1.commit.committedInsts    200173456                       # Number of instructions committed
system.switch_cpus_1.commit.committedOps    200173456                       # Number of ops (including micro ops) committed
system.switch_cpus_1.commit.swp_count               0                       # Number of s/w prefetches committed
system.switch_cpus_1.commit.refs             53329056                       # Number of memory references committed
system.switch_cpus_1.commit.loads            40800023                       # Number of loads committed
system.switch_cpus_1.commit.membars                 0                       # Number of memory barriers committed
system.switch_cpus_1.commit.branches          1403066                       # Number of branches committed
system.switch_cpus_1.commit.fp_insts        122294760                       # Number of committed floating point instructions.
system.switch_cpus_1.commit.int_insts       127004953                       # Number of committed integer instructions.
system.switch_cpus_1.commit.function_calls            7                       # Number of function calls committed.
system.switch_cpus_1.commit.op_class_0::No_OpClass       173452      0.09%      0.09% # Class of committed instruction
system.switch_cpus_1.commit.op_class_0::IntAlu     61200061     30.57%     30.66% # Class of committed instruction
system.switch_cpus_1.commit.op_class_0::IntMult            0      0.00%     30.66% # Class of committed instruction
system.switch_cpus_1.commit.op_class_0::IntDiv            0      0.00%     30.66% # Class of committed instruction
system.switch_cpus_1.commit.op_class_0::FloatAdd     35376177     17.67%     48.33% # Class of committed instruction
system.switch_cpus_1.commit.op_class_0::FloatCmp      8364224      4.18%     52.51% # Class of committed instruction
system.switch_cpus_1.commit.op_class_0::FloatCvt     12546336      6.27%     58.78% # Class of committed instruction
system.switch_cpus_1.commit.op_class_0::FloatMult     26817554     13.40%     72.18% # Class of committed instruction
system.switch_cpus_1.commit.op_class_0::FloatMultAcc            0      0.00%     72.18% # Class of committed instruction
system.switch_cpus_1.commit.op_class_0::FloatDiv      2366596      1.18%     73.36% # Class of committed instruction
system.switch_cpus_1.commit.op_class_0::FloatMisc            0      0.00%     73.36% # Class of committed instruction
system.switch_cpus_1.commit.op_class_0::FloatSqrt            0      0.00%     73.36% # Class of committed instruction
system.switch_cpus_1.commit.op_class_0::SimdAdd            0      0.00%     73.36% # Class of committed instruction
system.switch_cpus_1.commit.op_class_0::SimdAddAcc            0      0.00%     73.36% # Class of committed instruction
system.switch_cpus_1.commit.op_class_0::SimdAlu            0      0.00%     73.36% # Class of committed instruction
system.switch_cpus_1.commit.op_class_0::SimdCmp            0      0.00%     73.36% # Class of committed instruction
system.switch_cpus_1.commit.op_class_0::SimdCvt            0      0.00%     73.36% # Class of committed instruction
system.switch_cpus_1.commit.op_class_0::SimdMisc            0      0.00%     73.36% # Class of committed instruction
system.switch_cpus_1.commit.op_class_0::SimdMult            0      0.00%     73.36% # Class of committed instruction
system.switch_cpus_1.commit.op_class_0::SimdMultAcc            0      0.00%     73.36% # Class of committed instruction
system.switch_cpus_1.commit.op_class_0::SimdShift            0      0.00%     73.36% # Class of committed instruction
system.switch_cpus_1.commit.op_class_0::SimdShiftAcc            0      0.00%     73.36% # Class of committed instruction
system.switch_cpus_1.commit.op_class_0::SimdSqrt            0      0.00%     73.36% # Class of committed instruction
system.switch_cpus_1.commit.op_class_0::SimdFloatAdd            0      0.00%     73.36% # Class of committed instruction
system.switch_cpus_1.commit.op_class_0::SimdFloatAlu            0      0.00%     73.36% # Class of committed instruction
system.switch_cpus_1.commit.op_class_0::SimdFloatCmp            0      0.00%     73.36% # Class of committed instruction
system.switch_cpus_1.commit.op_class_0::SimdFloatCvt            0      0.00%     73.36% # Class of committed instruction
system.switch_cpus_1.commit.op_class_0::SimdFloatDiv            0      0.00%     73.36% # Class of committed instruction
system.switch_cpus_1.commit.op_class_0::SimdFloatMisc            0      0.00%     73.36% # Class of committed instruction
system.switch_cpus_1.commit.op_class_0::SimdFloatMult            0      0.00%     73.36% # Class of committed instruction
system.switch_cpus_1.commit.op_class_0::SimdFloatMultAcc            0      0.00%     73.36% # Class of committed instruction
system.switch_cpus_1.commit.op_class_0::SimdFloatSqrt            0      0.00%     73.36% # Class of committed instruction
system.switch_cpus_1.commit.op_class_0::MemRead     12460377      6.22%     79.58% # Class of committed instruction
system.switch_cpus_1.commit.op_class_0::MemWrite      4044806      2.02%     81.60% # Class of committed instruction
system.switch_cpus_1.commit.op_class_0::FloatMemRead     28339646     14.16%     95.76% # Class of committed instruction
system.switch_cpus_1.commit.op_class_0::FloatMemWrite      8484227      4.24%    100.00% # Class of committed instruction
system.switch_cpus_1.commit.op_class_0::IprAccess            0      0.00%    100.00% # Class of committed instruction
system.switch_cpus_1.commit.op_class_0::InstPrefetch            0      0.00%    100.00% # Class of committed instruction
system.switch_cpus_1.commit.op_class_0::total    200173456                       # Class of committed instruction
system.switch_cpus_1.commit.bw_lim_events     18063567                       # number cycles where commit BW limit reached
system.switch_cpus_1.rob.rob_reads          448964616                       # The number of ROB reads
system.switch_cpus_1.rob.rob_writes         423946051                       # The number of ROB writes
system.switch_cpus_1.timesIdled                    14                       # Number of times that the entire CPU went into an idle state and unscheduled itself
system.switch_cpus_1.idleCycles                  3539                       # Total number of cycles that the CPU has spent unscheduled due to idling
system.switch_cpus_1.committedInsts         200000004                       # Number of Instructions Simulated
system.switch_cpus_1.committedOps           200000004                       # Number of Ops (including micro ops) Simulated
system.switch_cpus_1.cpi                     1.294086                       # CPI: Cycles Per Instruction
system.switch_cpus_1.cpi_total               1.294086                       # CPI: Total CPI of All Threads
system.switch_cpus_1.ipc                     0.772746                       # IPC: Instructions Per Cycle
system.switch_cpus_1.ipc_total               0.772746                       # IPC: Total IPC of All Threads
system.switch_cpus_1.int_regfile_reads      175649333                       # number of integer regfile reads
system.switch_cpus_1.int_regfile_writes      84673804                       # number of integer regfile writes
system.switch_cpus_1.fp_regfile_reads       170481156                       # number of floating regfile reads
system.switch_cpus_1.fp_regfile_writes      108911902                       # number of floating regfile writes
system.tol3bus.snoop_filter.tot_requests      9621264                       # Total number of requests made to the snoop filter.
system.tol3bus.snoop_filter.hit_single_requests      4808441                       # Number of requests hitting in the snoop filter with a single holder of the requested data.
system.tol3bus.snoop_filter.hit_multi_requests            0                       # Number of requests hitting in the snoop filter with multiple (>1) holders of the requested data.
system.tol3bus.snoop_filter.tot_snoops         147951                       # Total number of snoops made to the snoop filter.
system.tol3bus.snoop_filter.hit_single_snoops       147951                       # Number of snoops hitting in the snoop filter with a single holder of the requested data.
system.tol3bus.snoop_filter.hit_multi_snoops            0                       # Number of snoops hitting in the snoop filter with multiple (>1) holders of the requested data.
system.tol3bus.pwrStateResidencyTicks::UNDEFINED 118811632976460                       # Cumulative time (in ticks) in various power states
system.tol3bus.trans_dist::ReadResp           4255831                       # Transaction distribution
system.tol3bus.trans_dist::WritebackDirty      3571750                       # Transaction distribution
system.tol3bus.trans_dist::CleanEvict         5610778                       # Transaction distribution
system.tol3bus.trans_dist::UpgradeReq               1                       # Transaction distribution
system.tol3bus.trans_dist::UpgradeResp              1                       # Transaction distribution
system.tol3bus.trans_dist::ReadExReq           556992                       # Transaction distribution
system.tol3bus.trans_dist::ReadExResp          556992                       # Transaction distribution
system.tol3bus.trans_dist::ReadSharedReq      4255831                       # Transaction distribution
system.tol3bus.pkt_count_system.cpu.l2.mem_side::system.l3.cpu_side     14434088                       # Packet count per connected master and slave (bytes)
system.tol3bus.pkt_size_system.cpu.l2.mem_side::system.l3.cpu_side    424735232                       # Cumulative packet size per connected master and slave (bytes)
system.tol3bus.snoops                         4374088                       # Total snoops (count)
system.tol3bus.snoopTraffic                 111877440                       # Total snoop traffic (bytes)
system.tol3bus.snoop_fanout::samples          9186912                       # Request fanout histogram
system.tol3bus.snoop_fanout::mean            0.016105                       # Request fanout histogram
system.tol3bus.snoop_fanout::stdev           0.125878                       # Request fanout histogram
system.tol3bus.snoop_fanout::underflows             0      0.00%      0.00% # Request fanout histogram
system.tol3bus.snoop_fanout::0                9038961     98.39%     98.39% # Request fanout histogram
system.tol3bus.snoop_fanout::1                 147951      1.61%    100.00% # Request fanout histogram
system.tol3bus.snoop_fanout::overflows              0      0.00%    100.00% # Request fanout histogram
system.tol3bus.snoop_fanout::min_value              0                       # Request fanout histogram
system.tol3bus.snoop_fanout::max_value              1                       # Request fanout histogram
system.tol3bus.snoop_fanout::total            9186912                       # Request fanout histogram
system.tol3bus.reqLayer0.occupancy         3811161357                       # Layer occupancy (ticks)
system.tol3bus.reqLayer0.utilization              0.2                       # Layer utilization (%)
system.tol3bus.respLayer0.occupancy        3205340451                       # Layer occupancy (ticks)
system.tol3bus.respLayer0.utilization             0.2                       # Layer utilization (%)

---------- End Simulation Statistics   ----------
