
---------- Begin Simulation Statistics ----------
sim_seconds                                  6.496081                       # Number of seconds simulated
sim_ticks                                6496081126956                       # Number of ticks simulated
final_tick                               26481182486823                       # Number of ticks from beginning of simulation (restored from checkpoints and never reset)
sim_freq                                 1000000000000                       # Frequency of simulated ticks
host_inst_rate                                 127958                       # Simulator instruction rate (inst/s)
host_op_rate                                   127958                       # Simulator op (including micro ops) rate (op/s)
host_tick_rate                              692685923                       # Simulator tick rate (ticks/s)
host_mem_usage                                2453548                       # Number of bytes of host memory used
host_seconds                                  9378.10                       # Real time elapsed on the host
sim_insts                                  1200000007                       # Number of instructions simulated
sim_ops                                    1200000007                       # Number of ops (including micro ops) simulated
system.voltage_domain.voltage                       1                       # Voltage in Volts
system.clk_domain.clock                          1000                       # Clock period in ticks
system.mem_ctrls0.pwrStateResidencyTicks::UNDEFINED 26481182486823                       # Cumulative time (in ticks) in various power states
system.mem_ctrls0.bytes_read::cpu.inst             64                       # Number of bytes read from this memory
system.mem_ctrls0.bytes_read::cpu.data             64                       # Number of bytes read from this memory
system.mem_ctrls0.bytes_read::switch_cpus.inst         1152                       # Number of bytes read from this memory
system.mem_ctrls0.bytes_read::switch_cpus.data    950024000                       # Number of bytes read from this memory
system.mem_ctrls0.bytes_read::switch_cpus_1.data    193947456                       # Number of bytes read from this memory
system.mem_ctrls0.bytes_read::total        1143972736                       # Number of bytes read from this memory
system.mem_ctrls0.bytes_inst_read::cpu.inst           64                       # Number of instructions bytes read from this memory
system.mem_ctrls0.bytes_inst_read::switch_cpus.inst         1152                       # Number of instructions bytes read from this memory
system.mem_ctrls0.bytes_inst_read::total         1216                       # Number of instructions bytes read from this memory
system.mem_ctrls0.bytes_written::writebacks    837236288                       # Number of bytes written to this memory
system.mem_ctrls0.bytes_written::total      837236288                       # Number of bytes written to this memory
system.mem_ctrls0.num_reads::cpu.inst               1                       # Number of read requests responded to by this memory
system.mem_ctrls0.num_reads::cpu.data               1                       # Number of read requests responded to by this memory
system.mem_ctrls0.num_reads::switch_cpus.inst           18                       # Number of read requests responded to by this memory
system.mem_ctrls0.num_reads::switch_cpus.data     14844125                       # Number of read requests responded to by this memory
system.mem_ctrls0.num_reads::switch_cpus_1.data      3030429                       # Number of read requests responded to by this memory
system.mem_ctrls0.num_reads::total           17874574                       # Number of read requests responded to by this memory
system.mem_ctrls0.num_writes::writebacks     13081817                       # Number of write requests responded to by this memory
system.mem_ctrls0.num_writes::total          13081817                       # Number of write requests responded to by this memory
system.mem_ctrls0.bw_read::cpu.inst                10                       # Total read bandwidth from this memory (bytes/s)
system.mem_ctrls0.bw_read::cpu.data                10                       # Total read bandwidth from this memory (bytes/s)
system.mem_ctrls0.bw_read::switch_cpus.inst          177                       # Total read bandwidth from this memory (bytes/s)
system.mem_ctrls0.bw_read::switch_cpus.data    146245711                       # Total read bandwidth from this memory (bytes/s)
system.mem_ctrls0.bw_read::switch_cpus_1.data     29856070                       # Total read bandwidth from this memory (bytes/s)
system.mem_ctrls0.bw_read::total            176101978                       # Total read bandwidth from this memory (bytes/s)
system.mem_ctrls0.bw_inst_read::cpu.inst           10                       # Instruction read bandwidth from this memory (bytes/s)
system.mem_ctrls0.bw_inst_read::switch_cpus.inst          177                       # Instruction read bandwidth from this memory (bytes/s)
system.mem_ctrls0.bw_inst_read::total             187                       # Instruction read bandwidth from this memory (bytes/s)
system.mem_ctrls0.bw_write::writebacks      128883287                       # Write bandwidth from this memory (bytes/s)
system.mem_ctrls0.bw_write::total           128883287                       # Write bandwidth from this memory (bytes/s)
system.mem_ctrls0.bw_total::writebacks      128883287                       # Total bandwidth to/from this memory (bytes/s)
system.mem_ctrls0.bw_total::cpu.inst               10                       # Total bandwidth to/from this memory (bytes/s)
system.mem_ctrls0.bw_total::cpu.data               10                       # Total bandwidth to/from this memory (bytes/s)
system.mem_ctrls0.bw_total::switch_cpus.inst          177                       # Total bandwidth to/from this memory (bytes/s)
system.mem_ctrls0.bw_total::switch_cpus.data    146245711                       # Total bandwidth to/from this memory (bytes/s)
system.mem_ctrls0.bw_total::switch_cpus_1.data     29856070                       # Total bandwidth to/from this memory (bytes/s)
system.mem_ctrls0.bw_total::total           304985265                       # Total bandwidth to/from this memory (bytes/s)
system.mem_ctrls0.readReqs                   17874574                       # Number of read requests accepted
system.mem_ctrls0.writeReqs                  13081817                       # Number of write requests accepted
system.mem_ctrls0.readBursts                 17874574                       # Number of DRAM read bursts, including those serviced by the write queue
system.mem_ctrls0.writeBursts                13081817                       # Number of DRAM write bursts, including those merged in the write queue
system.mem_ctrls0.bytesReadDRAM            1143972736                       # Total number of bytes read from DRAM
system.mem_ctrls0.bytesReadWrQ                      0                       # Total number of bytes read from write queue
system.mem_ctrls0.bytesWritten              837234624                       # Total number of bytes written to DRAM
system.mem_ctrls0.bytesReadSys             1143972736                       # Total read bytes from the system interface side
system.mem_ctrls0.bytesWrittenSys           837236288                       # Total written bytes from the system interface side
system.mem_ctrls0.servicedByWrQ                     0                       # Number of DRAM read bursts serviced by the write queue
system.mem_ctrls0.mergedWrBursts                    0                       # Number of DRAM write bursts merged with an existing one
system.mem_ctrls0.neitherReadNorWriteReqs            0                       # Number of requests that are neither read nor write
system.mem_ctrls0.perBankRdBursts::0          1117325                       # Per bank write bursts
system.mem_ctrls0.perBankRdBursts::1          1109436                       # Per bank write bursts
system.mem_ctrls0.perBankRdBursts::2          1124270                       # Per bank write bursts
system.mem_ctrls0.perBankRdBursts::3          1123030                       # Per bank write bursts
system.mem_ctrls0.perBankRdBursts::4          1122724                       # Per bank write bursts
system.mem_ctrls0.perBankRdBursts::5          1115002                       # Per bank write bursts
system.mem_ctrls0.perBankRdBursts::6          1119346                       # Per bank write bursts
system.mem_ctrls0.perBankRdBursts::7          1131155                       # Per bank write bursts
system.mem_ctrls0.perBankRdBursts::8          1124525                       # Per bank write bursts
system.mem_ctrls0.perBankRdBursts::9          1118009                       # Per bank write bursts
system.mem_ctrls0.perBankRdBursts::10         1111454                       # Per bank write bursts
system.mem_ctrls0.perBankRdBursts::11         1107540                       # Per bank write bursts
system.mem_ctrls0.perBankRdBursts::12         1105015                       # Per bank write bursts
system.mem_ctrls0.perBankRdBursts::13         1117176                       # Per bank write bursts
system.mem_ctrls0.perBankRdBursts::14         1110417                       # Per bank write bursts
system.mem_ctrls0.perBankRdBursts::15         1118150                       # Per bank write bursts
system.mem_ctrls0.perBankWrBursts::0           818165                       # Per bank write bursts
system.mem_ctrls0.perBankWrBursts::1           810181                       # Per bank write bursts
system.mem_ctrls0.perBankWrBursts::2           824891                       # Per bank write bursts
system.mem_ctrls0.perBankWrBursts::3           823535                       # Per bank write bursts
system.mem_ctrls0.perBankWrBursts::4           823181                       # Per bank write bursts
system.mem_ctrls0.perBankWrBursts::5           815235                       # Per bank write bursts
system.mem_ctrls0.perBankWrBursts::6           819499                       # Per bank write bursts
system.mem_ctrls0.perBankWrBursts::7           831291                       # Per bank write bursts
system.mem_ctrls0.perBankWrBursts::8           824611                       # Per bank write bursts
system.mem_ctrls0.perBankWrBursts::9           818138                       # Per bank write bursts
system.mem_ctrls0.perBankWrBursts::10          811744                       # Per bank write bursts
system.mem_ctrls0.perBankWrBursts::11          807940                       # Per bank write bursts
system.mem_ctrls0.perBankWrBursts::12          805230                       # Per bank write bursts
system.mem_ctrls0.perBankWrBursts::13          817945                       # Per bank write bursts
system.mem_ctrls0.perBankWrBursts::14          811188                       # Per bank write bursts
system.mem_ctrls0.perBankWrBursts::15          819017                       # Per bank write bursts
system.mem_ctrls0.numRdRetry                        0                       # Number of times read queue was full causing retry
system.mem_ctrls0.numWrRetry                        0                       # Number of times write queue was full causing retry
system.mem_ctrls0.totGap                 6496080892191                       # Total gap between requests
system.mem_ctrls0.readPktSize::0                    0                       # Read request sizes (log2)
system.mem_ctrls0.readPktSize::1                    0                       # Read request sizes (log2)
system.mem_ctrls0.readPktSize::2                    0                       # Read request sizes (log2)
system.mem_ctrls0.readPktSize::3                    0                       # Read request sizes (log2)
system.mem_ctrls0.readPktSize::4                    0                       # Read request sizes (log2)
system.mem_ctrls0.readPktSize::5                    0                       # Read request sizes (log2)
system.mem_ctrls0.readPktSize::6             17874574                       # Read request sizes (log2)
system.mem_ctrls0.writePktSize::0                   0                       # Write request sizes (log2)
system.mem_ctrls0.writePktSize::1                   0                       # Write request sizes (log2)
system.mem_ctrls0.writePktSize::2                   0                       # Write request sizes (log2)
system.mem_ctrls0.writePktSize::3                   0                       # Write request sizes (log2)
system.mem_ctrls0.writePktSize::4                   0                       # Write request sizes (log2)
system.mem_ctrls0.writePktSize::5                   0                       # Write request sizes (log2)
system.mem_ctrls0.writePktSize::6            13081817                       # Write request sizes (log2)
system.mem_ctrls0.rdQLenPdf::0               16841284                       # What read queue length does an incoming req see
system.mem_ctrls0.rdQLenPdf::1                 822859                       # What read queue length does an incoming req see
system.mem_ctrls0.rdQLenPdf::2                 199776                       # What read queue length does an incoming req see
system.mem_ctrls0.rdQLenPdf::3                  10655                       # What read queue length does an incoming req see
system.mem_ctrls0.rdQLenPdf::4                      0                       # What read queue length does an incoming req see
system.mem_ctrls0.rdQLenPdf::5                      0                       # What read queue length does an incoming req see
system.mem_ctrls0.rdQLenPdf::6                      0                       # What read queue length does an incoming req see
system.mem_ctrls0.rdQLenPdf::7                      0                       # What read queue length does an incoming req see
system.mem_ctrls0.rdQLenPdf::8                      0                       # What read queue length does an incoming req see
system.mem_ctrls0.rdQLenPdf::9                      0                       # What read queue length does an incoming req see
system.mem_ctrls0.rdQLenPdf::10                     0                       # What read queue length does an incoming req see
system.mem_ctrls0.rdQLenPdf::11                     0                       # What read queue length does an incoming req see
system.mem_ctrls0.rdQLenPdf::12                     0                       # What read queue length does an incoming req see
system.mem_ctrls0.rdQLenPdf::13                     0                       # What read queue length does an incoming req see
system.mem_ctrls0.rdQLenPdf::14                     0                       # What read queue length does an incoming req see
system.mem_ctrls0.rdQLenPdf::15                     0                       # What read queue length does an incoming req see
system.mem_ctrls0.rdQLenPdf::16                     0                       # What read queue length does an incoming req see
system.mem_ctrls0.rdQLenPdf::17                     0                       # What read queue length does an incoming req see
system.mem_ctrls0.rdQLenPdf::18                     0                       # What read queue length does an incoming req see
system.mem_ctrls0.rdQLenPdf::19                     0                       # What read queue length does an incoming req see
system.mem_ctrls0.rdQLenPdf::20                     0                       # What read queue length does an incoming req see
system.mem_ctrls0.rdQLenPdf::21                     0                       # What read queue length does an incoming req see
system.mem_ctrls0.rdQLenPdf::22                     0                       # What read queue length does an incoming req see
system.mem_ctrls0.rdQLenPdf::23                     0                       # What read queue length does an incoming req see
system.mem_ctrls0.rdQLenPdf::24                     0                       # What read queue length does an incoming req see
system.mem_ctrls0.rdQLenPdf::25                     0                       # What read queue length does an incoming req see
system.mem_ctrls0.rdQLenPdf::26                     0                       # What read queue length does an incoming req see
system.mem_ctrls0.rdQLenPdf::27                     0                       # What read queue length does an incoming req see
system.mem_ctrls0.rdQLenPdf::28                     0                       # What read queue length does an incoming req see
system.mem_ctrls0.rdQLenPdf::29                     0                       # What read queue length does an incoming req see
system.mem_ctrls0.rdQLenPdf::30                     0                       # What read queue length does an incoming req see
system.mem_ctrls0.rdQLenPdf::31                     0                       # What read queue length does an incoming req see
system.mem_ctrls0.wrQLenPdf::0                      2                       # What write queue length does an incoming req see
system.mem_ctrls0.wrQLenPdf::1                      2                       # What write queue length does an incoming req see
system.mem_ctrls0.wrQLenPdf::2                      2                       # What write queue length does an incoming req see
system.mem_ctrls0.wrQLenPdf::3                      2                       # What write queue length does an incoming req see
system.mem_ctrls0.wrQLenPdf::4                      2                       # What write queue length does an incoming req see
system.mem_ctrls0.wrQLenPdf::5                      2                       # What write queue length does an incoming req see
system.mem_ctrls0.wrQLenPdf::6                      2                       # What write queue length does an incoming req see
system.mem_ctrls0.wrQLenPdf::7                      2                       # What write queue length does an incoming req see
system.mem_ctrls0.wrQLenPdf::8                      2                       # What write queue length does an incoming req see
system.mem_ctrls0.wrQLenPdf::9                      2                       # What write queue length does an incoming req see
system.mem_ctrls0.wrQLenPdf::10                     2                       # What write queue length does an incoming req see
system.mem_ctrls0.wrQLenPdf::11                     2                       # What write queue length does an incoming req see
system.mem_ctrls0.wrQLenPdf::12                     2                       # What write queue length does an incoming req see
system.mem_ctrls0.wrQLenPdf::13                     2                       # What write queue length does an incoming req see
system.mem_ctrls0.wrQLenPdf::14                     2                       # What write queue length does an incoming req see
system.mem_ctrls0.wrQLenPdf::15                501316                       # What write queue length does an incoming req see
system.mem_ctrls0.wrQLenPdf::16                517311                       # What write queue length does an incoming req see
system.mem_ctrls0.wrQLenPdf::17                713846                       # What write queue length does an incoming req see
system.mem_ctrls0.wrQLenPdf::18                751492                       # What write queue length does an incoming req see
system.mem_ctrls0.wrQLenPdf::19                757491                       # What write queue length does an incoming req see
system.mem_ctrls0.wrQLenPdf::20                758475                       # What write queue length does an incoming req see
system.mem_ctrls0.wrQLenPdf::21                765060                       # What write queue length does an incoming req see
system.mem_ctrls0.wrQLenPdf::22                763103                       # What write queue length does an incoming req see
system.mem_ctrls0.wrQLenPdf::23                772178                       # What write queue length does an incoming req see
system.mem_ctrls0.wrQLenPdf::24                758081                       # What write queue length does an incoming req see
system.mem_ctrls0.wrQLenPdf::25                755440                       # What write queue length does an incoming req see
system.mem_ctrls0.wrQLenPdf::26                754619                       # What write queue length does an incoming req see
system.mem_ctrls0.wrQLenPdf::27                754245                       # What write queue length does an incoming req see
system.mem_ctrls0.wrQLenPdf::28                753512                       # What write queue length does an incoming req see
system.mem_ctrls0.wrQLenPdf::29                753048                       # What write queue length does an incoming req see
system.mem_ctrls0.wrQLenPdf::30                751665                       # What write queue length does an incoming req see
system.mem_ctrls0.wrQLenPdf::31                749639                       # What write queue length does an incoming req see
system.mem_ctrls0.wrQLenPdf::32                749533                       # What write queue length does an incoming req see
system.mem_ctrls0.wrQLenPdf::33                  1429                       # What write queue length does an incoming req see
system.mem_ctrls0.wrQLenPdf::34                   259                       # What write queue length does an incoming req see
system.mem_ctrls0.wrQLenPdf::35                    36                       # What write queue length does an incoming req see
system.mem_ctrls0.wrQLenPdf::36                     6                       # What write queue length does an incoming req see
system.mem_ctrls0.wrQLenPdf::37                     3                       # What write queue length does an incoming req see
system.mem_ctrls0.wrQLenPdf::38                     0                       # What write queue length does an incoming req see
system.mem_ctrls0.wrQLenPdf::39                     0                       # What write queue length does an incoming req see
system.mem_ctrls0.wrQLenPdf::40                     0                       # What write queue length does an incoming req see
system.mem_ctrls0.wrQLenPdf::41                     0                       # What write queue length does an incoming req see
system.mem_ctrls0.wrQLenPdf::42                     0                       # What write queue length does an incoming req see
system.mem_ctrls0.wrQLenPdf::43                     0                       # What write queue length does an incoming req see
system.mem_ctrls0.wrQLenPdf::44                     0                       # What write queue length does an incoming req see
system.mem_ctrls0.wrQLenPdf::45                     0                       # What write queue length does an incoming req see
system.mem_ctrls0.wrQLenPdf::46                     0                       # What write queue length does an incoming req see
system.mem_ctrls0.wrQLenPdf::47                     0                       # What write queue length does an incoming req see
system.mem_ctrls0.wrQLenPdf::48                     0                       # What write queue length does an incoming req see
system.mem_ctrls0.wrQLenPdf::49                     0                       # What write queue length does an incoming req see
system.mem_ctrls0.wrQLenPdf::50                     0                       # What write queue length does an incoming req see
system.mem_ctrls0.wrQLenPdf::51                     0                       # What write queue length does an incoming req see
system.mem_ctrls0.wrQLenPdf::52                     0                       # What write queue length does an incoming req see
system.mem_ctrls0.wrQLenPdf::53                     0                       # What write queue length does an incoming req see
system.mem_ctrls0.wrQLenPdf::54                     0                       # What write queue length does an incoming req see
system.mem_ctrls0.wrQLenPdf::55                     0                       # What write queue length does an incoming req see
system.mem_ctrls0.wrQLenPdf::56                     0                       # What write queue length does an incoming req see
system.mem_ctrls0.wrQLenPdf::57                     0                       # What write queue length does an incoming req see
system.mem_ctrls0.wrQLenPdf::58                     0                       # What write queue length does an incoming req see
system.mem_ctrls0.wrQLenPdf::59                     0                       # What write queue length does an incoming req see
system.mem_ctrls0.wrQLenPdf::60                     0                       # What write queue length does an incoming req see
system.mem_ctrls0.wrQLenPdf::61                     0                       # What write queue length does an incoming req see
system.mem_ctrls0.wrQLenPdf::62                     0                       # What write queue length does an incoming req see
system.mem_ctrls0.wrQLenPdf::63                     0                       # What write queue length does an incoming req see
system.mem_ctrls0.bytesPerActivate::samples     14794460                       # Bytes accessed per row activation
system.mem_ctrls0.bytesPerActivate::mean   133.915395                       # Bytes accessed per row activation
system.mem_ctrls0.bytesPerActivate::gmean   110.812329                       # Bytes accessed per row activation
system.mem_ctrls0.bytesPerActivate::stdev    97.888064                       # Bytes accessed per row activation
system.mem_ctrls0.bytesPerActivate::0-127      6767536     45.74%     45.74% # Bytes accessed per row activation
system.mem_ctrls0.bytesPerActivate::128-255      6094873     41.20%     86.94% # Bytes accessed per row activation
system.mem_ctrls0.bytesPerActivate::256-383      1424960      9.63%     96.57% # Bytes accessed per row activation
system.mem_ctrls0.bytesPerActivate::384-511       313954      2.12%     98.69% # Bytes accessed per row activation
system.mem_ctrls0.bytesPerActivate::512-639       115427      0.78%     99.47% # Bytes accessed per row activation
system.mem_ctrls0.bytesPerActivate::640-767        45825      0.31%     99.78% # Bytes accessed per row activation
system.mem_ctrls0.bytesPerActivate::768-895        21105      0.14%     99.93% # Bytes accessed per row activation
system.mem_ctrls0.bytesPerActivate::896-1023         7286      0.05%     99.98% # Bytes accessed per row activation
system.mem_ctrls0.bytesPerActivate::1024-1151         3494      0.02%    100.00% # Bytes accessed per row activation
system.mem_ctrls0.bytesPerActivate::total     14794460                       # Bytes accessed per row activation
system.mem_ctrls0.rdPerTurnAround::samples       749344                       # Reads before turning the bus around for writes
system.mem_ctrls0.rdPerTurnAround::mean     23.853609                       # Reads before turning the bus around for writes
system.mem_ctrls0.rdPerTurnAround::gmean    23.276128                       # Reads before turning the bus around for writes
system.mem_ctrls0.rdPerTurnAround::stdev    38.404740                       # Reads before turning the bus around for writes
system.mem_ctrls0.rdPerTurnAround::0-2047       749343    100.00%    100.00% # Reads before turning the bus around for writes
system.mem_ctrls0.rdPerTurnAround::32768-34815            1      0.00%    100.00% # Reads before turning the bus around for writes
system.mem_ctrls0.rdPerTurnAround::total       749344                       # Reads before turning the bus around for writes
system.mem_ctrls0.wrPerTurnAround::samples       749344                       # Writes before turning the bus around for reads
system.mem_ctrls0.wrPerTurnAround::mean     17.457658                       # Writes before turning the bus around for reads
system.mem_ctrls0.wrPerTurnAround::gmean    17.426062                       # Writes before turning the bus around for reads
system.mem_ctrls0.wrPerTurnAround::stdev     1.041815                       # Writes before turning the bus around for reads
system.mem_ctrls0.wrPerTurnAround::16          232884     31.08%     31.08% # Writes before turning the bus around for reads
system.mem_ctrls0.wrPerTurnAround::17           10615      1.42%     32.49% # Writes before turning the bus around for reads
system.mem_ctrls0.wrPerTurnAround::18          445518     59.45%     91.95% # Writes before turning the bus around for reads
system.mem_ctrls0.wrPerTurnAround::19           51713      6.90%     98.85% # Writes before turning the bus around for reads
system.mem_ctrls0.wrPerTurnAround::20            7661      1.02%     99.87% # Writes before turning the bus around for reads
system.mem_ctrls0.wrPerTurnAround::21             876      0.12%     99.99% # Writes before turning the bus around for reads
system.mem_ctrls0.wrPerTurnAround::22              69      0.01%    100.00% # Writes before turning the bus around for reads
system.mem_ctrls0.wrPerTurnAround::23               5      0.00%    100.00% # Writes before turning the bus around for reads
system.mem_ctrls0.wrPerTurnAround::24               3      0.00%    100.00% # Writes before turning the bus around for reads
system.mem_ctrls0.wrPerTurnAround::total       749344                       # Writes before turning the bus around for reads
system.mem_ctrls0.totQLat                452533468424                       # Total ticks spent queuing
system.mem_ctrls0.totMemAccLat           787681730924                       # Total ticks spent from burst creation until serviced by the DRAM
system.mem_ctrls0.totBusLat               89372870000                       # Total ticks spent in databus transfers
system.mem_ctrls0.avgQLat                    25317.16                       # Average queueing delay per DRAM burst
system.mem_ctrls0.avgBusLat                   5000.00                       # Average bus latency per DRAM burst
system.mem_ctrls0.avgMemAccLat               44067.16                       # Average memory access latency per DRAM burst
system.mem_ctrls0.avgRdBW                      176.10                       # Average DRAM read bandwidth in MiByte/s
system.mem_ctrls0.avgWrBW                      128.88                       # Average achieved write bandwidth in MiByte/s
system.mem_ctrls0.avgRdBWSys                   176.10                       # Average system read bandwidth in MiByte/s
system.mem_ctrls0.avgWrBWSys                   128.88                       # Average system write bandwidth in MiByte/s
system.mem_ctrls0.peakBW                     12800.00                       # Theoretical peak bandwidth in MiByte/s
system.mem_ctrls0.busUtil                        2.38                       # Data bus utilization in percentage
system.mem_ctrls0.busUtilRead                    1.38                       # Data bus utilization in percentage for reads
system.mem_ctrls0.busUtilWrite                   1.01                       # Data bus utilization in percentage for writes
system.mem_ctrls0.avgRdQLen                      1.03                       # Average read queue length when enqueuing
system.mem_ctrls0.avgWrQLen                     24.75                       # Average write queue length when enqueuing
system.mem_ctrls0.readRowHits                 7946922                       # Number of row buffer hits during reads
system.mem_ctrls0.writeRowHits                8214974                       # Number of row buffer hits during writes
system.mem_ctrls0.readRowHitRate                44.46                       # Row buffer hit rate for reads
system.mem_ctrls0.writeRowHitRate               62.80                       # Row buffer hit rate for writes
system.mem_ctrls0.avgGap                    209846.20                       # Average gap between requests
system.mem_ctrls0.pageHitRate                   52.21                       # Row buffer hit rate, read and write combined
system.mem_ctrls0_0.actEnergy             52960871460                       # Energy for activate commands per rank (pJ)
system.mem_ctrls0_0.preEnergy             28149355575                       # Energy for precharge commands per rank (pJ)
system.mem_ctrls0_0.readEnergy            63990736320                       # Energy for read commands per rank (pJ)
system.mem_ctrls0_0.writeEnergy           34274405160                       # Energy for write commands per rank (pJ)
system.mem_ctrls0_0.refreshEnergy        532548681600.000122                       # Energy for refresh commands per rank (pJ)
system.mem_ctrls0_0.actBackEnergy        607192463520                       # Energy for active background per rank (pJ)
system.mem_ctrls0_0.preBackEnergy         18495664320                       # Energy for precharge background per rank (pJ)
system.mem_ctrls0_0.actPowerDownEnergy   1800479735460                       # Energy for active power-down per rank (pJ)
system.mem_ctrls0_0.prePowerDownEnergy   388275376320                       # Energy for precharge power-down per rank (pJ)
system.mem_ctrls0_0.selfRefreshEnergy     68698943175                       # Energy for self refresh per rank (pJ)
system.mem_ctrls0_0.totalEnergy          3595312757940                       # Total energy per rank (pJ)
system.mem_ctrls0_0.averagePower           553.458709                       # Core power per rank (mW)
system.mem_ctrls0_0.totalIdleTime        5115808742729                       # Total Idle time Per DRAM Rank
system.mem_ctrls0_0.memoryStateTime::IDLE  23029199394                       # Time in different power states
system.mem_ctrls0_0.memoryStateTime::REF 225627668000                       # Time in different power states
system.mem_ctrls0_0.memoryStateTime::SREF 156249977103                       # Time in different power states
system.mem_ctrls0_0.memoryStateTime::PRE_PDN 1011133184803                       # Time in different power states
system.mem_ctrls0_0.memoryStateTime::ACT 1131615516833                       # Time in different power states
system.mem_ctrls0_0.memoryStateTime::ACT_PDN 3948425580823                       # Time in different power states
system.mem_ctrls0_1.actEnergy             52671637200                       # Energy for activate commands per rank (pJ)
system.mem_ctrls0_1.preEnergy             27995620125                       # Energy for precharge commands per rank (pJ)
system.mem_ctrls0_1.readEnergy            63633722040                       # Energy for read commands per rank (pJ)
system.mem_ctrls0_1.writeEnergy           34012543860                       # Energy for write commands per rank (pJ)
system.mem_ctrls0_1.refreshEnergy        532716478320.000122                       # Energy for refresh commands per rank (pJ)
system.mem_ctrls0_1.actBackEnergy        604777085100                       # Energy for active background per rank (pJ)
system.mem_ctrls0_1.preBackEnergy         18808991520                       # Energy for precharge background per rank (pJ)
system.mem_ctrls0_1.actPowerDownEnergy   1794931424430                       # Energy for active power-down per rank (pJ)
system.mem_ctrls0_1.prePowerDownEnergy   391767159840                       # Energy for precharge power-down per rank (pJ)
system.mem_ctrls0_1.selfRefreshEnergy     71249320560                       # Energy for self refresh per rank (pJ)
system.mem_ctrls0_1.totalEnergy          3592811292585                       # Total energy per rank (pJ)
system.mem_ctrls0_1.averagePower           553.073635                       # Core power per rank (mW)
system.mem_ctrls0_1.totalIdleTime        5120289561835                       # Total Idle time Per DRAM Rank
system.mem_ctrls0_1.memoryStateTime::IDLE  23862106158                       # Time in different power states
system.mem_ctrls0_1.memoryStateTime::REF 225706160000                       # Time in different power states
system.mem_ctrls0_1.memoryStateTime::SREF 163803726916                       # Time in different power states
system.mem_ctrls0_1.memoryStateTime::PRE_PDN 1020222805268                       # Time in different power states
system.mem_ctrls0_1.memoryStateTime::ACT 1126223293290                       # Time in different power states
system.mem_ctrls0_1.memoryStateTime::ACT_PDN 3936263035324                       # Time in different power states
system.mem_ctrls1.pwrStateResidencyTicks::UNDEFINED 26481182486823                       # Cumulative time (in ticks) in various power states
system.mem_ctrls1.bytes_read::cpu.inst            128                       # Number of bytes read from this memory
system.mem_ctrls1.bytes_read::cpu.data            128                       # Number of bytes read from this memory
system.mem_ctrls1.bytes_read::switch_cpus.inst          896                       # Number of bytes read from this memory
system.mem_ctrls1.bytes_read::switch_cpus.data    950023616                       # Number of bytes read from this memory
system.mem_ctrls1.bytes_read::switch_cpus_1.data    193925696                       # Number of bytes read from this memory
system.mem_ctrls1.bytes_read::total        1143950464                       # Number of bytes read from this memory
system.mem_ctrls1.bytes_inst_read::cpu.inst          128                       # Number of instructions bytes read from this memory
system.mem_ctrls1.bytes_inst_read::switch_cpus.inst          896                       # Number of instructions bytes read from this memory
system.mem_ctrls1.bytes_inst_read::total         1024                       # Number of instructions bytes read from this memory
system.mem_ctrls1.bytes_written::writebacks    837233984                       # Number of bytes written to this memory
system.mem_ctrls1.bytes_written::total      837233984                       # Number of bytes written to this memory
system.mem_ctrls1.num_reads::cpu.inst               2                       # Number of read requests responded to by this memory
system.mem_ctrls1.num_reads::cpu.data               2                       # Number of read requests responded to by this memory
system.mem_ctrls1.num_reads::switch_cpus.inst           14                       # Number of read requests responded to by this memory
system.mem_ctrls1.num_reads::switch_cpus.data     14844119                       # Number of read requests responded to by this memory
system.mem_ctrls1.num_reads::switch_cpus_1.data      3030089                       # Number of read requests responded to by this memory
system.mem_ctrls1.num_reads::total           17874226                       # Number of read requests responded to by this memory
system.mem_ctrls1.num_writes::writebacks     13081781                       # Number of write requests responded to by this memory
system.mem_ctrls1.num_writes::total          13081781                       # Number of write requests responded to by this memory
system.mem_ctrls1.bw_read::cpu.inst                20                       # Total read bandwidth from this memory (bytes/s)
system.mem_ctrls1.bw_read::cpu.data                20                       # Total read bandwidth from this memory (bytes/s)
system.mem_ctrls1.bw_read::switch_cpus.inst          138                       # Total read bandwidth from this memory (bytes/s)
system.mem_ctrls1.bw_read::switch_cpus.data    146245651                       # Total read bandwidth from this memory (bytes/s)
system.mem_ctrls1.bw_read::switch_cpus_1.data     29852721                       # Total read bandwidth from this memory (bytes/s)
system.mem_ctrls1.bw_read::total            176098550                       # Total read bandwidth from this memory (bytes/s)
system.mem_ctrls1.bw_inst_read::cpu.inst           20                       # Instruction read bandwidth from this memory (bytes/s)
system.mem_ctrls1.bw_inst_read::switch_cpus.inst          138                       # Instruction read bandwidth from this memory (bytes/s)
system.mem_ctrls1.bw_inst_read::total             158                       # Instruction read bandwidth from this memory (bytes/s)
system.mem_ctrls1.bw_write::writebacks      128882932                       # Write bandwidth from this memory (bytes/s)
system.mem_ctrls1.bw_write::total           128882932                       # Write bandwidth from this memory (bytes/s)
system.mem_ctrls1.bw_total::writebacks      128882932                       # Total bandwidth to/from this memory (bytes/s)
system.mem_ctrls1.bw_total::cpu.inst               20                       # Total bandwidth to/from this memory (bytes/s)
system.mem_ctrls1.bw_total::cpu.data               20                       # Total bandwidth to/from this memory (bytes/s)
system.mem_ctrls1.bw_total::switch_cpus.inst          138                       # Total bandwidth to/from this memory (bytes/s)
system.mem_ctrls1.bw_total::switch_cpus.data    146245651                       # Total bandwidth to/from this memory (bytes/s)
system.mem_ctrls1.bw_total::switch_cpus_1.data     29852721                       # Total bandwidth to/from this memory (bytes/s)
system.mem_ctrls1.bw_total::total           304981482                       # Total bandwidth to/from this memory (bytes/s)
system.mem_ctrls1.readReqs                   17874226                       # Number of read requests accepted
system.mem_ctrls1.writeReqs                  13081781                       # Number of write requests accepted
system.mem_ctrls1.readBursts                 17874226                       # Number of DRAM read bursts, including those serviced by the write queue
system.mem_ctrls1.writeBursts                13081781                       # Number of DRAM write bursts, including those merged in the write queue
system.mem_ctrls1.bytesReadDRAM            1143950464                       # Total number of bytes read from DRAM
system.mem_ctrls1.bytesReadWrQ                      0                       # Total number of bytes read from write queue
system.mem_ctrls1.bytesWritten              837232256                       # Total number of bytes written to DRAM
system.mem_ctrls1.bytesReadSys             1143950464                       # Total read bytes from the system interface side
system.mem_ctrls1.bytesWrittenSys           837233984                       # Total written bytes from the system interface side
system.mem_ctrls1.servicedByWrQ                     0                       # Number of DRAM read bursts serviced by the write queue
system.mem_ctrls1.mergedWrBursts                    0                       # Number of DRAM write bursts merged with an existing one
system.mem_ctrls1.neitherReadNorWriteReqs            0                       # Number of requests that are neither read nor write
system.mem_ctrls1.perBankRdBursts::0          1117360                       # Per bank write bursts
system.mem_ctrls1.perBankRdBursts::1          1109443                       # Per bank write bursts
system.mem_ctrls1.perBankRdBursts::2          1124241                       # Per bank write bursts
system.mem_ctrls1.perBankRdBursts::3          1123068                       # Per bank write bursts
system.mem_ctrls1.perBankRdBursts::4          1122674                       # Per bank write bursts
system.mem_ctrls1.perBankRdBursts::5          1114987                       # Per bank write bursts
system.mem_ctrls1.perBankRdBursts::6          1119333                       # Per bank write bursts
system.mem_ctrls1.perBankRdBursts::7          1131167                       # Per bank write bursts
system.mem_ctrls1.perBankRdBursts::8          1124649                       # Per bank write bursts
system.mem_ctrls1.perBankRdBursts::9          1117903                       # Per bank write bursts
system.mem_ctrls1.perBankRdBursts::10         1111377                       # Per bank write bursts
system.mem_ctrls1.perBankRdBursts::11         1107602                       # Per bank write bursts
system.mem_ctrls1.perBankRdBursts::12         1104840                       # Per bank write bursts
system.mem_ctrls1.perBankRdBursts::13         1117230                       # Per bank write bursts
system.mem_ctrls1.perBankRdBursts::14         1110412                       # Per bank write bursts
system.mem_ctrls1.perBankRdBursts::15         1117940                       # Per bank write bursts
system.mem_ctrls1.perBankWrBursts::0           818188                       # Per bank write bursts
system.mem_ctrls1.perBankWrBursts::1           810200                       # Per bank write bursts
system.mem_ctrls1.perBankWrBursts::2           824873                       # Per bank write bursts
system.mem_ctrls1.perBankWrBursts::3           823595                       # Per bank write bursts
system.mem_ctrls1.perBankWrBursts::4           823121                       # Per bank write bursts
system.mem_ctrls1.perBankWrBursts::5           815218                       # Per bank write bursts
system.mem_ctrls1.perBankWrBursts::6           819492                       # Per bank write bursts
system.mem_ctrls1.perBankWrBursts::7           831310                       # Per bank write bursts
system.mem_ctrls1.perBankWrBursts::8           824758                       # Per bank write bursts
system.mem_ctrls1.perBankWrBursts::9           818024                       # Per bank write bursts
system.mem_ctrls1.perBankWrBursts::10          811659                       # Per bank write bursts
system.mem_ctrls1.perBankWrBursts::11          808018                       # Per bank write bursts
system.mem_ctrls1.perBankWrBursts::12          805288                       # Per bank write bursts
system.mem_ctrls1.perBankWrBursts::13          818001                       # Per bank write bursts
system.mem_ctrls1.perBankWrBursts::14          811194                       # Per bank write bursts
system.mem_ctrls1.perBankWrBursts::15          818815                       # Per bank write bursts
system.mem_ctrls1.numRdRetry                        0                       # Number of times read queue was full causing retry
system.mem_ctrls1.numWrRetry                        0                       # Number of times write queue was full causing retry
system.mem_ctrls1.totGap                 6496081088328                       # Total gap between requests
system.mem_ctrls1.readPktSize::0                    0                       # Read request sizes (log2)
system.mem_ctrls1.readPktSize::1                    0                       # Read request sizes (log2)
system.mem_ctrls1.readPktSize::2                    0                       # Read request sizes (log2)
system.mem_ctrls1.readPktSize::3                    0                       # Read request sizes (log2)
system.mem_ctrls1.readPktSize::4                    0                       # Read request sizes (log2)
system.mem_ctrls1.readPktSize::5                    0                       # Read request sizes (log2)
system.mem_ctrls1.readPktSize::6             17874226                       # Read request sizes (log2)
system.mem_ctrls1.writePktSize::0                   0                       # Write request sizes (log2)
system.mem_ctrls1.writePktSize::1                   0                       # Write request sizes (log2)
system.mem_ctrls1.writePktSize::2                   0                       # Write request sizes (log2)
system.mem_ctrls1.writePktSize::3                   0                       # Write request sizes (log2)
system.mem_ctrls1.writePktSize::4                   0                       # Write request sizes (log2)
system.mem_ctrls1.writePktSize::5                   0                       # Write request sizes (log2)
system.mem_ctrls1.writePktSize::6            13081781                       # Write request sizes (log2)
system.mem_ctrls1.rdQLenPdf::0               16840680                       # What read queue length does an incoming req see
system.mem_ctrls1.rdQLenPdf::1                 823638                       # What read queue length does an incoming req see
system.mem_ctrls1.rdQLenPdf::2                 199473                       # What read queue length does an incoming req see
system.mem_ctrls1.rdQLenPdf::3                  10435                       # What read queue length does an incoming req see
system.mem_ctrls1.rdQLenPdf::4                      0                       # What read queue length does an incoming req see
system.mem_ctrls1.rdQLenPdf::5                      0                       # What read queue length does an incoming req see
system.mem_ctrls1.rdQLenPdf::6                      0                       # What read queue length does an incoming req see
system.mem_ctrls1.rdQLenPdf::7                      0                       # What read queue length does an incoming req see
system.mem_ctrls1.rdQLenPdf::8                      0                       # What read queue length does an incoming req see
system.mem_ctrls1.rdQLenPdf::9                      0                       # What read queue length does an incoming req see
system.mem_ctrls1.rdQLenPdf::10                     0                       # What read queue length does an incoming req see
system.mem_ctrls1.rdQLenPdf::11                     0                       # What read queue length does an incoming req see
system.mem_ctrls1.rdQLenPdf::12                     0                       # What read queue length does an incoming req see
system.mem_ctrls1.rdQLenPdf::13                     0                       # What read queue length does an incoming req see
system.mem_ctrls1.rdQLenPdf::14                     0                       # What read queue length does an incoming req see
system.mem_ctrls1.rdQLenPdf::15                     0                       # What read queue length does an incoming req see
system.mem_ctrls1.rdQLenPdf::16                     0                       # What read queue length does an incoming req see
system.mem_ctrls1.rdQLenPdf::17                     0                       # What read queue length does an incoming req see
system.mem_ctrls1.rdQLenPdf::18                     0                       # What read queue length does an incoming req see
system.mem_ctrls1.rdQLenPdf::19                     0                       # What read queue length does an incoming req see
system.mem_ctrls1.rdQLenPdf::20                     0                       # What read queue length does an incoming req see
system.mem_ctrls1.rdQLenPdf::21                     0                       # What read queue length does an incoming req see
system.mem_ctrls1.rdQLenPdf::22                     0                       # What read queue length does an incoming req see
system.mem_ctrls1.rdQLenPdf::23                     0                       # What read queue length does an incoming req see
system.mem_ctrls1.rdQLenPdf::24                     0                       # What read queue length does an incoming req see
system.mem_ctrls1.rdQLenPdf::25                     0                       # What read queue length does an incoming req see
system.mem_ctrls1.rdQLenPdf::26                     0                       # What read queue length does an incoming req see
system.mem_ctrls1.rdQLenPdf::27                     0                       # What read queue length does an incoming req see
system.mem_ctrls1.rdQLenPdf::28                     0                       # What read queue length does an incoming req see
system.mem_ctrls1.rdQLenPdf::29                     0                       # What read queue length does an incoming req see
system.mem_ctrls1.rdQLenPdf::30                     0                       # What read queue length does an incoming req see
system.mem_ctrls1.rdQLenPdf::31                     0                       # What read queue length does an incoming req see
system.mem_ctrls1.wrQLenPdf::0                      2                       # What write queue length does an incoming req see
system.mem_ctrls1.wrQLenPdf::1                      2                       # What write queue length does an incoming req see
system.mem_ctrls1.wrQLenPdf::2                      2                       # What write queue length does an incoming req see
system.mem_ctrls1.wrQLenPdf::3                      2                       # What write queue length does an incoming req see
system.mem_ctrls1.wrQLenPdf::4                      2                       # What write queue length does an incoming req see
system.mem_ctrls1.wrQLenPdf::5                      2                       # What write queue length does an incoming req see
system.mem_ctrls1.wrQLenPdf::6                      2                       # What write queue length does an incoming req see
system.mem_ctrls1.wrQLenPdf::7                      2                       # What write queue length does an incoming req see
system.mem_ctrls1.wrQLenPdf::8                      2                       # What write queue length does an incoming req see
system.mem_ctrls1.wrQLenPdf::9                      2                       # What write queue length does an incoming req see
system.mem_ctrls1.wrQLenPdf::10                     2                       # What write queue length does an incoming req see
system.mem_ctrls1.wrQLenPdf::11                     2                       # What write queue length does an incoming req see
system.mem_ctrls1.wrQLenPdf::12                     2                       # What write queue length does an incoming req see
system.mem_ctrls1.wrQLenPdf::13                     2                       # What write queue length does an incoming req see
system.mem_ctrls1.wrQLenPdf::14                     2                       # What write queue length does an incoming req see
system.mem_ctrls1.wrQLenPdf::15                500639                       # What write queue length does an incoming req see
system.mem_ctrls1.wrQLenPdf::16                516804                       # What write queue length does an incoming req see
system.mem_ctrls1.wrQLenPdf::17                713991                       # What write queue length does an incoming req see
system.mem_ctrls1.wrQLenPdf::18                751571                       # What write queue length does an incoming req see
system.mem_ctrls1.wrQLenPdf::19                757668                       # What write queue length does an incoming req see
system.mem_ctrls1.wrQLenPdf::20                758490                       # What write queue length does an incoming req see
system.mem_ctrls1.wrQLenPdf::21                765101                       # What write queue length does an incoming req see
system.mem_ctrls1.wrQLenPdf::22                763125                       # What write queue length does an incoming req see
system.mem_ctrls1.wrQLenPdf::23                772315                       # What write queue length does an incoming req see
system.mem_ctrls1.wrQLenPdf::24                758251                       # What write queue length does an incoming req see
system.mem_ctrls1.wrQLenPdf::25                755361                       # What write queue length does an incoming req see
system.mem_ctrls1.wrQLenPdf::26                754694                       # What write queue length does an incoming req see
system.mem_ctrls1.wrQLenPdf::27                754355                       # What write queue length does an incoming req see
system.mem_ctrls1.wrQLenPdf::28                753536                       # What write queue length does an incoming req see
system.mem_ctrls1.wrQLenPdf::29                753166                       # What write queue length does an incoming req see
system.mem_ctrls1.wrQLenPdf::30                751704                       # What write queue length does an incoming req see
system.mem_ctrls1.wrQLenPdf::31                749688                       # What write queue length does an incoming req see
system.mem_ctrls1.wrQLenPdf::32                749602                       # What write queue length does an incoming req see
system.mem_ctrls1.wrQLenPdf::33                  1385                       # What write queue length does an incoming req see
system.mem_ctrls1.wrQLenPdf::34                   258                       # What write queue length does an incoming req see
system.mem_ctrls1.wrQLenPdf::35                    40                       # What write queue length does an incoming req see
system.mem_ctrls1.wrQLenPdf::36                     7                       # What write queue length does an incoming req see
system.mem_ctrls1.wrQLenPdf::37                     0                       # What write queue length does an incoming req see
system.mem_ctrls1.wrQLenPdf::38                     0                       # What write queue length does an incoming req see
system.mem_ctrls1.wrQLenPdf::39                     0                       # What write queue length does an incoming req see
system.mem_ctrls1.wrQLenPdf::40                     0                       # What write queue length does an incoming req see
system.mem_ctrls1.wrQLenPdf::41                     0                       # What write queue length does an incoming req see
system.mem_ctrls1.wrQLenPdf::42                     0                       # What write queue length does an incoming req see
system.mem_ctrls1.wrQLenPdf::43                     0                       # What write queue length does an incoming req see
system.mem_ctrls1.wrQLenPdf::44                     0                       # What write queue length does an incoming req see
system.mem_ctrls1.wrQLenPdf::45                     0                       # What write queue length does an incoming req see
system.mem_ctrls1.wrQLenPdf::46                     0                       # What write queue length does an incoming req see
system.mem_ctrls1.wrQLenPdf::47                     0                       # What write queue length does an incoming req see
system.mem_ctrls1.wrQLenPdf::48                     0                       # What write queue length does an incoming req see
system.mem_ctrls1.wrQLenPdf::49                     0                       # What write queue length does an incoming req see
system.mem_ctrls1.wrQLenPdf::50                     0                       # What write queue length does an incoming req see
system.mem_ctrls1.wrQLenPdf::51                     0                       # What write queue length does an incoming req see
system.mem_ctrls1.wrQLenPdf::52                     0                       # What write queue length does an incoming req see
system.mem_ctrls1.wrQLenPdf::53                     0                       # What write queue length does an incoming req see
system.mem_ctrls1.wrQLenPdf::54                     0                       # What write queue length does an incoming req see
system.mem_ctrls1.wrQLenPdf::55                     0                       # What write queue length does an incoming req see
system.mem_ctrls1.wrQLenPdf::56                     0                       # What write queue length does an incoming req see
system.mem_ctrls1.wrQLenPdf::57                     0                       # What write queue length does an incoming req see
system.mem_ctrls1.wrQLenPdf::58                     0                       # What write queue length does an incoming req see
system.mem_ctrls1.wrQLenPdf::59                     0                       # What write queue length does an incoming req see
system.mem_ctrls1.wrQLenPdf::60                     0                       # What write queue length does an incoming req see
system.mem_ctrls1.wrQLenPdf::61                     0                       # What write queue length does an incoming req see
system.mem_ctrls1.wrQLenPdf::62                     0                       # What write queue length does an incoming req see
system.mem_ctrls1.wrQLenPdf::63                     0                       # What write queue length does an incoming req see
system.mem_ctrls1.bytesPerActivate::samples     14794490                       # Bytes accessed per row activation
system.mem_ctrls1.bytesPerActivate::mean   133.913462                       # Bytes accessed per row activation
system.mem_ctrls1.bytesPerActivate::gmean   110.807379                       # Bytes accessed per row activation
system.mem_ctrls1.bytesPerActivate::stdev    97.913358                       # Bytes accessed per row activation
system.mem_ctrls1.bytesPerActivate::0-127      6769061     45.75%     45.75% # Bytes accessed per row activation
system.mem_ctrls1.bytesPerActivate::128-255      6092267     41.18%     86.93% # Bytes accessed per row activation
system.mem_ctrls1.bytesPerActivate::256-383      1426473      9.64%     96.58% # Bytes accessed per row activation
system.mem_ctrls1.bytesPerActivate::384-511       313570      2.12%     98.69% # Bytes accessed per row activation
system.mem_ctrls1.bytesPerActivate::512-639       115108      0.78%     99.47% # Bytes accessed per row activation
system.mem_ctrls1.bytesPerActivate::640-767        45724      0.31%     99.78% # Bytes accessed per row activation
system.mem_ctrls1.bytesPerActivate::768-895        21267      0.14%     99.93% # Bytes accessed per row activation
system.mem_ctrls1.bytesPerActivate::896-1023         7417      0.05%     99.98% # Bytes accessed per row activation
system.mem_ctrls1.bytesPerActivate::1024-1151         3603      0.02%    100.00% # Bytes accessed per row activation
system.mem_ctrls1.bytesPerActivate::total     14794490                       # Bytes accessed per row activation
system.mem_ctrls1.rdPerTurnAround::samples       749411                       # Reads before turning the bus around for writes
system.mem_ctrls1.rdPerTurnAround::mean     23.851015                       # Reads before turning the bus around for writes
system.mem_ctrls1.rdPerTurnAround::gmean    23.272762                       # Reads before turning the bus around for writes
system.mem_ctrls1.rdPerTurnAround::stdev    38.407390                       # Reads before turning the bus around for writes
system.mem_ctrls1.rdPerTurnAround::0-2047       749410    100.00%    100.00% # Reads before turning the bus around for writes
system.mem_ctrls1.rdPerTurnAround::32768-34815            1      0.00%    100.00% # Reads before turning the bus around for writes
system.mem_ctrls1.rdPerTurnAround::total       749411                       # Reads before turning the bus around for writes
system.mem_ctrls1.wrPerTurnAround::samples       749411                       # Writes before turning the bus around for reads
system.mem_ctrls1.wrPerTurnAround::mean     17.456047                       # Writes before turning the bus around for reads
system.mem_ctrls1.wrPerTurnAround::gmean    17.424416                       # Writes before turning the bus around for reads
system.mem_ctrls1.wrPerTurnAround::stdev     1.042424                       # Writes before turning the bus around for reads
system.mem_ctrls1.wrPerTurnAround::16          233394     31.14%     31.14% # Writes before turning the bus around for reads
system.mem_ctrls1.wrPerTurnAround::17           10862      1.45%     32.59% # Writes before turning the bus around for reads
system.mem_ctrls1.wrPerTurnAround::18          444811     59.35%     91.95% # Writes before turning the bus around for reads
system.mem_ctrls1.wrPerTurnAround::19           51743      6.90%     98.85% # Writes before turning the bus around for reads
system.mem_ctrls1.wrPerTurnAround::20            7625      1.02%     99.87% # Writes before turning the bus around for reads
system.mem_ctrls1.wrPerTurnAround::21             899      0.12%     99.99% # Writes before turning the bus around for reads
system.mem_ctrls1.wrPerTurnAround::22              72      0.01%    100.00% # Writes before turning the bus around for reads
system.mem_ctrls1.wrPerTurnAround::23               3      0.00%    100.00% # Writes before turning the bus around for reads
system.mem_ctrls1.wrPerTurnAround::24               1      0.00%    100.00% # Writes before turning the bus around for reads
system.mem_ctrls1.wrPerTurnAround::25               1      0.00%    100.00% # Writes before turning the bus around for reads
system.mem_ctrls1.wrPerTurnAround::total       749411                       # Writes before turning the bus around for reads
system.mem_ctrls1.totQLat                452462997528                       # Total ticks spent queuing
system.mem_ctrls1.totMemAccLat           787604735028                       # Total ticks spent from burst creation until serviced by the DRAM
system.mem_ctrls1.totBusLat               89371130000                       # Total ticks spent in databus transfers
system.mem_ctrls1.avgQLat                    25313.71                       # Average queueing delay per DRAM burst
system.mem_ctrls1.avgBusLat                   5000.00                       # Average bus latency per DRAM burst
system.mem_ctrls1.avgMemAccLat               44063.71                       # Average memory access latency per DRAM burst
system.mem_ctrls1.avgRdBW                      176.10                       # Average DRAM read bandwidth in MiByte/s
system.mem_ctrls1.avgWrBW                      128.88                       # Average achieved write bandwidth in MiByte/s
system.mem_ctrls1.avgRdBWSys                   176.10                       # Average system read bandwidth in MiByte/s
system.mem_ctrls1.avgWrBWSys                   128.88                       # Average system write bandwidth in MiByte/s
system.mem_ctrls1.peakBW                     12800.00                       # Theoretical peak bandwidth in MiByte/s
system.mem_ctrls1.busUtil                        2.38                       # Data bus utilization in percentage
system.mem_ctrls1.busUtilRead                    1.38                       # Data bus utilization in percentage for reads
system.mem_ctrls1.busUtilWrite                   1.01                       # Data bus utilization in percentage for writes
system.mem_ctrls1.avgRdQLen                      1.03                       # Average read queue length when enqueuing
system.mem_ctrls1.avgWrQLen                     24.75                       # Average write queue length when enqueuing
system.mem_ctrls1.readRowHits                 7946280                       # Number of row buffer hits during reads
system.mem_ctrls1.writeRowHits                8215201                       # Number of row buffer hits during writes
system.mem_ctrls1.readRowHitRate                44.46                       # Row buffer hit rate for reads
system.mem_ctrls1.writeRowHitRate               62.80                       # Row buffer hit rate for writes
system.mem_ctrls1.avgGap                    209848.81                       # Average gap between requests
system.mem_ctrls1.pageHitRate                   52.21                       # Row buffer hit rate, read and write combined
system.mem_ctrls1_0.actEnergy             52968939660                       # Energy for activate commands per rank (pJ)
system.mem_ctrls1_0.preEnergy             28153643925                       # Energy for precharge commands per rank (pJ)
system.mem_ctrls1_0.readEnergy            63990629220                       # Energy for read commands per rank (pJ)
system.mem_ctrls1_0.writeEnergy           34274504340                       # Energy for write commands per rank (pJ)
system.mem_ctrls1_0.refreshEnergy        532699268400.000122                       # Energy for refresh commands per rank (pJ)
system.mem_ctrls1_0.actBackEnergy        606677329440                       # Energy for active background per rank (pJ)
system.mem_ctrls1_0.preBackEnergy         18579902400                       # Energy for precharge background per rank (pJ)
system.mem_ctrls1_0.actPowerDownEnergy   1800272605440                       # Energy for active power-down per rank (pJ)
system.mem_ctrls1_0.prePowerDownEnergy   389342578080                       # Energy for precharge power-down per rank (pJ)
system.mem_ctrls1_0.selfRefreshEnergy     68398256565                       # Energy for self refresh per rank (pJ)
system.mem_ctrls1_0.totalEnergy          3595608557760                       # Total energy per rank (pJ)
system.mem_ctrls1_0.averagePower           553.504239                       # Core power per rank (mW)
system.mem_ctrls1_0.totalIdleTime        5116701869307                       # Total Idle time Per DRAM Rank
system.mem_ctrls1_0.memoryStateTime::IDLE  23248581862                       # Time in different power states
system.mem_ctrls1_0.memoryStateTime::REF 225691650000                       # Time in different power states
system.mem_ctrls1_0.memoryStateTime::SREF 154826024232                       # Time in different power states
system.mem_ctrls1_0.memoryStateTime::PRE_PDN 1013907869572                       # Time in different power states
system.mem_ctrls1_0.memoryStateTime::ACT 1130439025787                       # Time in different power states
system.mem_ctrls1_0.memoryStateTime::ACT_PDN 3947967975503                       # Time in different power states
system.mem_ctrls1_1.actEnergy             52663783200                       # Energy for activate commands per rank (pJ)
system.mem_ctrls1_1.preEnergy             27991445625                       # Energy for precharge commands per rank (pJ)
system.mem_ctrls1_1.readEnergy            63631344420                       # Energy for read commands per rank (pJ)
system.mem_ctrls1_1.writeEnergy           34012251540                       # Energy for write commands per rank (pJ)
system.mem_ctrls1_1.refreshEnergy        532876899360.000122                       # Energy for refresh commands per rank (pJ)
system.mem_ctrls1_1.actBackEnergy        604446225180                       # Energy for active background per rank (pJ)
system.mem_ctrls1_1.preBackEnergy         18944211840                       # Energy for precharge background per rank (pJ)
system.mem_ctrls1_1.actPowerDownEnergy   1794341855190                       # Energy for active power-down per rank (pJ)
system.mem_ctrls1_1.prePowerDownEnergy   392616809280                       # Energy for precharge power-down per rank (pJ)
system.mem_ctrls1_1.selfRefreshEnergy     71232947940                       # Energy for self refresh per rank (pJ)
system.mem_ctrls1_1.totalEnergy          3593016324345                       # Total energy per rank (pJ)
system.mem_ctrls1_1.averagePower           553.105198                       # Core power per rank (mW)
system.mem_ctrls1_1.totalIdleTime        5120635288011                       # Total Idle time Per DRAM Rank
system.mem_ctrls1_1.memoryStateTime::IDLE  24239105078                       # Time in different power states
system.mem_ctrls1_1.memoryStateTime::REF 225775916000                       # Time in different power states
system.mem_ctrls1_1.memoryStateTime::SREF 163232335847                       # Time in different power states
system.mem_ctrls1_1.memoryStateTime::PRE_PDN 1022439237828                       # Time in different power states
system.mem_ctrls1_1.memoryStateTime::ACT 1125430700856                       # Time in different power states
system.mem_ctrls1_1.memoryStateTime::ACT_PDN 3934963831347                       # Time in different power states
system.pwrStateResidencyTicks::UNDEFINED 26481182486823                       # Cumulative time (in ticks) in various power states
system.cpu.branchPred.lookups                       0                       # Number of BP lookups
system.cpu.branchPred.condPredicted                 0                       # Number of conditional branches predicted
system.cpu.branchPred.condIncorrect                 0                       # Number of conditional branches incorrect
system.cpu.branchPred.BTBLookups                    0                       # Number of BTB lookups
system.cpu.branchPred.BTBHits                       0                       # Number of BTB hits
system.cpu.branchPred.BTBCorrect                    0                       # Number of correct BTB predictions (this stat may not work properly.
system.cpu.branchPred.BTBHitPct                   nan                       # BTB Hit Percentage
system.cpu.branchPred.usedRAS                       0                       # Number of times the RAS was used to get a target.
system.cpu.branchPred.RASInCorrect                  0                       # Number of incorrect RAS predictions.
system.cpu.branchPred.indirectLookups               0                       # Number of indirect predictor lookups.
system.cpu.branchPred.indirectHits                  0                       # Number of indirect target hits.
system.cpu.branchPred.indirectMisses                0                       # Number of indirect misses.
system.cpu.branchPredindirectMispredicted            0                       # Number of mispredicted indirect branches.
system.cpu_voltage_domain.voltage                   1                       # Voltage in Volts
system.cpu_clk_domain.clock                       333                       # Clock period in ticks
system.cpu.dtb.fetch_hits                           0                       # ITB hits
system.cpu.dtb.fetch_misses                         0                       # ITB misses
system.cpu.dtb.fetch_acv                            0                       # ITB acv
system.cpu.dtb.fetch_accesses                       0                       # ITB accesses
system.cpu.dtb.read_hits                           14                       # DTB read hits
system.cpu.dtb.read_misses                          0                       # DTB read misses
system.cpu.dtb.read_acv                             0                       # DTB read access violations
system.cpu.dtb.read_accesses                       14                       # DTB read accesses
system.cpu.dtb.write_hits                           1                       # DTB write hits
system.cpu.dtb.write_misses                         0                       # DTB write misses
system.cpu.dtb.write_acv                            0                       # DTB write access violations
system.cpu.dtb.write_accesses                       1                       # DTB write accesses
system.cpu.dtb.data_hits                           15                       # DTB hits
system.cpu.dtb.data_misses                          0                       # DTB misses
system.cpu.dtb.data_acv                             0                       # DTB access violations
system.cpu.dtb.data_accesses                       15                       # DTB accesses
system.cpu.itb.fetch_hits                           4                       # ITB hits
system.cpu.itb.fetch_misses                         0                       # ITB misses
system.cpu.itb.fetch_acv                            0                       # ITB acv
system.cpu.itb.fetch_accesses                       4                       # ITB accesses
system.cpu.itb.read_hits                            0                       # DTB read hits
system.cpu.itb.read_misses                          0                       # DTB read misses
system.cpu.itb.read_acv                             0                       # DTB read access violations
system.cpu.itb.read_accesses                        0                       # DTB read accesses
system.cpu.itb.write_hits                           0                       # DTB write hits
system.cpu.itb.write_misses                         0                       # DTB write misses
system.cpu.itb.write_acv                            0                       # DTB write access violations
system.cpu.itb.write_accesses                       0                       # DTB write accesses
system.cpu.itb.data_hits                            0                       # DTB hits
system.cpu.itb.data_misses                          0                       # DTB misses
system.cpu.itb.data_acv                             0                       # DTB access violations
system.cpu.itb.data_accesses                        0                       # DTB accesses
system.cpu.workload.num_syscalls                    0                       # Number of system calls
system.cpu.pwrStateResidencyTicks::ON    6496081126956                       # Cumulative time (in ticks) in various power states
system.cpu.numCycles                              987                       # number of cpu cycles simulated
system.cpu.numWorkItemsStarted                      0                       # number of work items this cpu started
system.cpu.numWorkItemsCompleted                    0                       # number of work items this cpu completed
system.cpu.fetch.icacheStallCycles                 63                       # Number of cycles fetch is stalled on an Icache miss
system.cpu.fetch.Insts                             29                       # Number of instructions fetch has processed
system.cpu.fetch.Cycles                             4                       # Number of cycles fetch has run and was not squashing or blocked
system.cpu.fetch.SquashCycles                       3                       # Number of cycles fetch has spent squashing
system.cpu.fetch.PendingDrainCycles                 8                       # Number of cycles fetch has spent waiting on pipes to drain
system.cpu.fetch.CacheLines                         4                       # Number of cache lines fetched
system.cpu.fetch.IcacheSquashes                     2                       # Number of outstanding Icache misses that were squashed
system.cpu.fetch.rateDist::samples                 76                       # Number of instructions fetched each cycle (Total)
system.cpu.fetch.rateDist::mean              0.381579                       # Number of instructions fetched each cycle (Total)
system.cpu.fetch.rateDist::stdev             1.657042                       # Number of instructions fetched each cycle (Total)
system.cpu.fetch.rateDist::underflows               0      0.00%      0.00% # Number of instructions fetched each cycle (Total)
system.cpu.fetch.rateDist::0                       72     94.74%     94.74% # Number of instructions fetched each cycle (Total)
system.cpu.fetch.rateDist::1                        0      0.00%     94.74% # Number of instructions fetched each cycle (Total)
system.cpu.fetch.rateDist::2                        0      0.00%     94.74% # Number of instructions fetched each cycle (Total)
system.cpu.fetch.rateDist::3                        0      0.00%     94.74% # Number of instructions fetched each cycle (Total)
system.cpu.fetch.rateDist::4                        0      0.00%     94.74% # Number of instructions fetched each cycle (Total)
system.cpu.fetch.rateDist::5                        1      1.32%     96.05% # Number of instructions fetched each cycle (Total)
system.cpu.fetch.rateDist::6                        0      0.00%     96.05% # Number of instructions fetched each cycle (Total)
system.cpu.fetch.rateDist::7                        0      0.00%     96.05% # Number of instructions fetched each cycle (Total)
system.cpu.fetch.rateDist::8                        3      3.95%    100.00% # Number of instructions fetched each cycle (Total)
system.cpu.fetch.rateDist::overflows                0      0.00%    100.00% # Number of instructions fetched each cycle (Total)
system.cpu.fetch.rateDist::min_value                0                       # Number of instructions fetched each cycle (Total)
system.cpu.fetch.rateDist::max_value                8                       # Number of instructions fetched each cycle (Total)
system.cpu.fetch.rateDist::total                   76                       # Number of instructions fetched each cycle (Total)
system.cpu.fetch.branchRate                         0                       # Number of branch fetches per cycle
system.cpu.fetch.rate                        0.029382                       # Number of inst fetches per cycle
[...]
system.switch_cpus_1.iq.FU_type_0::IprAccess            0      0.00%    100.00% # Type of FU issued
system.switch_cpus_1.iq.FU_type_0::InstPrefetch            0      0.00%    100.00% # Type of FU issued
system.switch_cpus_1.iq.FU_type_0::total    324418254                       # Type of FU issued
system.switch_cpus_1.iq.rate                 0.350681                       # Inst issue rate
system.switch_cpus_1.iq.fu_busy_cnt          58279472                       # FU busy when requested
system.switch_cpus_1.iq.fu_busy_rate         0.179643                       # FU busy rate (busy events/executed inst)
system.switch_cpus_1.iq.int_inst_queue_reads    978382637                       # Number of integer instruction queue reads
system.switch_cpus_1.iq.int_inst_queue_writes     23716385                       # Number of integer instruction queue writes
system.switch_cpus_1.iq.int_inst_queue_wakeup_accesses     22423462                       # Number of integer instruction queue wakeup accesses
system.switch_cpus_1.iq.fp_inst_queue_reads    653902744                       # Number of floating instruction queue reads
system.switch_cpus_1.iq.fp_inst_queue_writes    190345077                       # Number of floating instruction queue writes
system.switch_cpus_1.iq.fp_inst_queue_wakeup_accesses    182409004                       # Number of floating instruction queue wakeup accesses
system.switch_cpus_1.iq.int_alu_accesses     27670029                       # Number of integer alu accesses
system.switch_cpus_1.iq.fp_alu_accesses     355027697                       # Number of floating point alu accesses
system.switch_cpus_1.iew.lsq.thread0.forwLoads      8678759                       # Number of loads that had data forwarded from stores
system.switch_cpus_1.iew.lsq.thread0.invAddrLoads            0                       # Number of loads ignored due to an invalid address
system.switch_cpus_1.iew.lsq.thread0.squashedLoads      1753775                       # Number of loads squashed
system.switch_cpus_1.iew.lsq.thread0.ignoredResponses           26                       # Number of memory responses ignored because the instruction is squashed
system.switch_cpus_1.iew.lsq.thread0.memOrderViolation         1283                       # Number of memory ordering violations
system.switch_cpus_1.iew.lsq.thread0.squashedStores       658022                       # Number of stores squashed
system.switch_cpus_1.iew.lsq.thread0.invAddrSwpfs            0                       # Number of software prefetches ignored due to an invalid address
system.switch_cpus_1.iew.lsq.thread0.blockedLoads            0                       # Number of blocked loads due to partial load-store forwarding
system.switch_cpus_1.iew.lsq.thread0.rescheduledLoads            0                       # Number of loads that were rescheduled
system.switch_cpus_1.iew.lsq.thread0.cacheBlocked    127380707                       # Number of times an access to memory failed due to the cache being blocked
system.switch_cpus_1.iew.iewIdleCycles              0                       # Number of cycles IEW is idle
system.switch_cpus_1.iew.iewSquashCycles        62311                       # Number of cycles IEW is squashing
system.switch_cpus_1.iew.iewBlockCycles     649130249                       # Number of cycles IEW is blocking
system.switch_cpus_1.iew.iewUnblockCycles     54995056                       # Number of cycles IEW is unblocking
system.switch_cpus_1.iew.iewDispatchedInsts    207030133                       # Number of instructions dispatched to IQ
system.switch_cpus_1.iew.iewDispSquashedInsts           28                       # Number of squashed instructions skipped by dispatch
system.switch_cpus_1.iew.iewDispLoadInsts     38698363                       # Number of dispatched load instructions
system.switch_cpus_1.iew.iewDispStoreInsts     18520026                       # Number of dispatched store instructions
system.switch_cpus_1.iew.iewDispNonSpecInsts            0                       # Number of dispatched non-speculative instructions
system.switch_cpus_1.iew.iewIQFullEvents      2088797                       # Number of times the IQ has become full, causing a stall
system.switch_cpus_1.iew.iewLSQFullEvents     51133072                       # Number of times the LSQ has become full, causing a stall
system.switch_cpus_1.iew.memOrderViolationEvents         1283                       # Number of memory order violations
system.switch_cpus_1.iew.predictedTakenIncorrect         1298                       # Number of branches that were predicted taken incorrectly
system.switch_cpus_1.iew.predictedNotTakenIncorrect         8929                       # Number of branches that were predicted not taken incorrectly
system.switch_cpus_1.iew.branchMispredicts        10227                       # Number of branch mispredicts detected at execute
system.switch_cpus_1.iew.iewExecutedInsts    324411128                       # Number of executed instructions
system.switch_cpus_1.iew.iewExecLoadInsts    157683790                       # Number of load instructions executed
system.switch_cpus_1.iew.iewExecSquashedInsts         7111                       # Number of squashed instructions skipped in execute
system.switch_cpus_1.iew.exec_swp                   0                       # number of swp insts executed
system.switch_cpus_1.iew.exec_nop                   1                       # number of nop insts executed
system.switch_cpus_1.iew.exec_refs          176076948                       # number of memory reference insts executed
system.switch_cpus_1.iew.exec_branches        3142262                       # Number of branches executed
system.switch_cpus_1.iew.exec_stores         18393158                       # Number of stores executed
system.switch_cpus_1.iew.exec_rate           0.350673                       # Inst execution rate
system.switch_cpus_1.iew.wb_sent            205024868                       # cumulative count of insts sent to commit
system.switch_cpus_1.iew.wb_count           204832466                       # cumulative count of insts written-back
system.switch_cpus_1.iew.wb_producers       162739830                       # num instructions producing a value
system.switch_cpus_1.iew.wb_consumers       223400539                       # num instructions consuming a value
system.switch_cpus_1.iew.wb_rate             0.221414                       # insts written-back per cycle
system.switch_cpus_1.iew.wb_fanout           0.728467                       # average fanout of values written-back
system.switch_cpus_1.commit.commitSquashedInsts      7101989                       # The number of squashed insts skipped by commit
system.switch_cpus_1.commit.branchMispredicts        10227                       # The number of times a branch was mispredicted
system.switch_cpus_1.commit.committed_per_cycle::samples    924189066                       # Number of insts commited each cycle
system.switch_cpus_1.commit.committed_per_cycle::mean     0.216406                       # Number of insts commited each cycle
system.switch_cpus_1.commit.committed_per_cycle::stdev     1.195560                       # Number of insts commited each cycle
system.switch_cpus_1.commit.committed_per_cycle::underflows            0      0.00%      0.00% # Number of insts commited each cycle
system.switch_cpus_1.commit.committed_per_cycle::0    886270657     95.90%     95.90% # Number of insts commited each cycle
system.switch_cpus_1.commit.committed_per_cycle::1      7910607      0.86%     96.75% # Number of insts commited each cycle
system.switch_cpus_1.commit.committed_per_cycle::2      1814299      0.20%     96.95% # Number of insts commited each cycle
system.switch_cpus_1.commit.committed_per_cycle::3      2102320      0.23%     97.18% # Number of insts commited each cycle
system.switch_cpus_1.commit.committed_per_cycle::4      3034970      0.33%     97.51% # Number of insts commited each cycle
system.switch_cpus_1.commit.committed_per_cycle::5      3149256      0.34%     97.85% # Number of insts commited each cycle
system.switch_cpus_1.commit.committed_per_cycle::6      1839141      0.20%     98.05% # Number of insts commited each cycle
system.switch_cpus_1.commit.committed_per_cycle::7      1309696      0.14%     98.19% # Number of insts commited each cycle
system.switch_cpus_1.commit.committed_per_cycle::8     16758120      1.81%    100.00% # Number of insts commited each cycle
system.switch_cpus_1.commit.committed_per_cycle::overflows            0      0.00%    100.00% # Number of insts commited each cycle
system.switch_cpus_1.commit.committed_per_cycle::min_value            0                       # Number of insts commited each cycle
system.switch_cpus_1.commit.committed_per_cycle::max_value            8                       # Number of insts commited each cycle
system.switch_cpus_1.commit.committed_per_cycle::total    924189066                       # Number of insts commited each cycle
system.switch_cpus_1.commit.committedInsts    200000003                       # Number of instructions committed
system.switch_cpus_1.commit.committedOps    200000003                       # Number of ops (including micro ops) committed
system.switch_cpus_1.commit.swp_count               0                       # Number of s/w prefetches committed
system.switch_cpus_1.commit.refs             54806565                       # Number of memory references committed
system.switch_cpus_1.commit.loads            36944574                       # Number of loads committed
system.switch_cpus_1.commit.membars                 0                       # Number of memory barriers committed
system.switch_cpus_1.commit.branches          3002738                       # Number of branches committed
system.switch_cpus_1.commit.fp_insts        178679405                       # Number of committed floating point instructions.
system.switch_cpus_1.commit.int_insts        74337577                       # Number of committed integer instructions.
system.switch_cpus_1.commit.function_calls            0                       # Number of function calls committed.
system.switch_cpus_1.commit.op_class_0::No_OpClass            0      0.00%      0.00% # Class of committed instruction
system.switch_cpus_1.commit.op_class_0::IntAlu     20683879     10.34%     10.34% # Class of committed instruction
system.switch_cpus_1.commit.op_class_0::IntMult            0      0.00%     10.34% # Class of committed instruction
system.switch_cpus_1.commit.op_class_0::IntDiv            0      0.00%     10.34% # Class of committed instruction
system.switch_cpus_1.commit.op_class_0::FloatAdd     77818474     38.91%     49.25% # Class of committed instruction
system.switch_cpus_1.commit.op_class_0::FloatCmp            0      0.00%     49.25% # Class of committed instruction
system.switch_cpus_1.commit.op_class_0::FloatCvt            0      0.00%     49.25% # Class of committed instruction
system.switch_cpus_1.commit.op_class_0::FloatMult     44961786     22.48%     71.73% # Class of committed instruction
system.switch_cpus_1.commit.op_class_0::FloatMultAcc            0      0.00%     71.73% # Class of committed instruction
system.switch_cpus_1.commit.op_class_0::FloatDiv      1729299      0.86%     72.60% # Class of committed instruction
system.switch_cpus_1.commit.op_class_0::FloatMisc            0      0.00%     72.60% # Class of committed instruction
system.switch_cpus_1.commit.op_class_0::FloatSqrt            0      0.00%     72.60% # Class of committed instruction
system.switch_cpus_1.commit.op_class_0::SimdAdd            0      0.00%     72.60% # Class of committed instruction
system.switch_cpus_1.commit.op_class_0::SimdAddAcc            0      0.00%     72.60% # Class of committed instruction
system.switch_cpus_1.commit.op_class_0::SimdAlu            0      0.00%     72.60% # Class of committed instruction
system.switch_cpus_1.commit.op_class_0::SimdCmp            0      0.00%     72.60% # Class of committed instruction
system.switch_cpus_1.commit.op_class_0::SimdCvt            0      0.00%     72.60% # Class of committed instruction
system.switch_cpus_1.commit.op_class_0::SimdMisc            0      0.00%     72.60% # Class of committed instruction
system.switch_cpus_1.commit.op_class_0::SimdMult            0      0.00%     72.60% # Class of committed instruction
system.switch_cpus_1.commit.op_class_0::SimdMultAcc            0      0.00%     72.60% # Class of committed instruction
system.switch_cpus_1.commit.op_class_0::SimdShift            0      0.00%     72.60% # Class of committed instruction
system.switch_cpus_1.commit.op_class_0::SimdShiftAcc            0      0.00%     72.60% # Class of committed instruction
system.switch_cpus_1.commit.op_class_0::SimdSqrt            0      0.00%     72.60% # Class of committed instruction
system.switch_cpus_1.commit.op_class_0::SimdFloatAdd            0      0.00%     72.60% # Class of committed instruction
system.switch_cpus_1.commit.op_class_0::SimdFloatAlu            0      0.00%     72.60% # Class of committed instruction
system.switch_cpus_1.commit.op_class_0::SimdFloatCmp            0      0.00%     72.60% # Class of committed instruction
system.switch_cpus_1.commit.op_class_0::SimdFloatCvt            0      0.00%     72.60% # Class of committed instruction
system.switch_cpus_1.commit.op_class_0::SimdFloatDiv            0      0.00%     72.60% # Class of committed instruction
system.switch_cpus_1.commit.op_class_0::SimdFloatMisc            0      0.00%     72.60% # Class of committed instruction
system.switch_cpus_1.commit.op_class_0::SimdFloatMult            0      0.00%     72.60% # Class of committed instruction
system.switch_cpus_1.commit.op_class_0::SimdFloatMultAcc            0      0.00%     72.60% # Class of committed instruction
system.switch_cpus_1.commit.op_class_0::SimdFloatSqrt            0      0.00%     72.60% # Class of committed instruction
system.switch_cpus_1.commit.op_class_0::MemRead       636719      0.32%     72.92% # Class of committed instruction
system.switch_cpus_1.commit.op_class_0::MemWrite            0      0.00%     72.92% # Class of committed instruction
system.switch_cpus_1.commit.op_class_0::FloatMemRead     36307855     18.15%     91.07% # Class of committed instruction
system.switch_cpus_1.commit.op_class_0::FloatMemWrite     17861991      8.93%    100.00% # Class of committed instruction
system.switch_cpus_1.commit.op_class_0::IprAccess            0      0.00%    100.00% # Class of committed instruction
system.switch_cpus_1.commit.op_class_0::InstPrefetch            0      0.00%    100.00% # Class of committed instruction
system.switch_cpus_1.commit.op_class_0::total    200000003                       # Class of committed instruction
system.switch_cpus_1.commit.bw_lim_events     16758120                       # number cycles where commit BW limit reached
system.switch_cpus_1.rob.rob_reads         1113865609                       # The number of ROB reads
system.switch_cpus_1.rob.rob_writes         415124431                       # The number of ROB writes
system.switch_cpus_1.committedInsts         200000003                       # Number of Instructions Simulated
system.switch_cpus_1.committedOps           200000003                       # Number of Ops (including micro ops) Simulated
system.switch_cpus_1.cpi                     4.625547                       # CPI: Cycles Per Instruction
system.switch_cpus_1.cpi_total               4.625547                       # CPI: Total CPI of All Threads
system.switch_cpus_1.ipc                     0.216191                       # IPC: Instructions Per Cycle
system.switch_cpus_1.ipc_total               0.216191                       # IPC: Total IPC of All Threads
system.switch_cpus_1.int_regfile_reads      197327052                       # number of integer regfile reads
system.switch_cpus_1.int_regfile_writes      19282207                       # number of integer regfile writes
system.switch_cpus_1.fp_regfile_reads       271544442                       # number of floating regfile reads
system.switch_cpus_1.fp_regfile_writes      164067739                       # number of floating regfile writes
system.tol3bus.snoop_filter.tot_requests     76288143                       # Total number of requests made to the snoop filter.
system.tol3bus.snoop_filter.hit_single_requests     38141903                       # Number of requests hitting in the snoop filter with a single holder of the requested data.
system.tol3bus.snoop_filter.hit_multi_requests            0                       # Number of requests hitting in the snoop filter with multiple (>1) holders of the requested data.
system.tol3bus.snoop_filter.tot_snoops            297                       # Total number of snoops made to the snoop filter.
system.tol3bus.snoop_filter.hit_single_snoops          297                       # Number of snoops hitting in the snoop filter with a single holder of the requested data.
system.tol3bus.snoop_filter.hit_multi_snoops            0                       # Number of snoops hitting in the snoop filter with multiple (>1) holders of the requested data.
system.tol3bus.pwrStateResidencyTicks::UNDEFINED 26481182486823                       # Cumulative time (in ticks) in various power states
system.tol3bus.trans_dist::ReadResp           9536653                       # Transaction distribution
system.tol3bus.trans_dist::WritebackDirty     54769764                       # Transaction distribution
system.tol3bus.trans_dist::CleanEvict        19052871                       # Transaction distribution
system.tol3bus.trans_dist::ReadExReq         28609587                       # Transaction distribution
system.tol3bus.trans_dist::ReadExResp        28609585                       # Transaction distribution
system.tol3bus.trans_dist::ReadSharedReq      9536653                       # Transaction distribution
system.tol3bus.pkt_count_system.cpu.l2.mem_side::system.l3.cpu_side    114434381                       # Packet count per connected master and slave (bytes)
system.tol3bus.pkt_size_system.cpu.l2.mem_side::system.l3.cpu_side   4272153856                       # Cumulative packet size per connected master and slave (bytes)
system.tol3bus.snoops                        35680732                       # Total snoops (count)
system.tol3bus.snoopTraffic                1674470272                       # Total snoop traffic (bytes)
system.tol3bus.snoop_fanout::samples         73826972                       # Request fanout histogram
system.tol3bus.snoop_fanout::mean            0.000004                       # Request fanout histogram
system.tol3bus.snoop_fanout::stdev           0.002006                       # Request fanout histogram
system.tol3bus.snoop_fanout::underflows             0      0.00%      0.00% # Request fanout histogram
system.tol3bus.snoop_fanout::0               73826675    100.00%    100.00% # Request fanout histogram
system.tol3bus.snoop_fanout::1                    297      0.00%    100.00% # Request fanout histogram
system.tol3bus.snoop_fanout::overflows              0      0.00%    100.00% # Request fanout histogram
system.tol3bus.snoop_fanout::min_value              0                       # Request fanout histogram
system.tol3bus.snoop_fanout::max_value              1                       # Request fanout histogram
system.tol3bus.snoop_fanout::total           73826972                       # Request fanout histogram
system.tol3bus.reqLayer0.occupancy        34929804897                       # Layer occupancy (ticks)
system.tol3bus.reqLayer0.utilization              0.5                       # Layer utilization (%)
system.tol3bus.respLayer0.occupancy       25405394508                       # Layer occupancy (ticks)
system.tol3bus.respLayer0.utilization             0.4                       # Layer utilization (%)

---------- End Simulation Statistics   ----------
