
---------- Begin Simulation Statistics ----------
sim_seconds                                  1.094243                       # Number of seconds simulated
sim_ticks                                1094243301027                       # Number of ticks simulated
final_tick                               111420462055284                       # Number of ticks from beginning of simulation (restored from checkpoints and never reset)
sim_freq                                 1000000000000                       # Frequency of simulated ticks
host_inst_rate                                 651242                       # Simulator instruction rate (inst/s)
host_op_rate                                   651242                       # Simulator op (including micro ops) rate (op/s)
host_tick_rate                              593847480                       # Simulator tick rate (ticks/s)
host_mem_usage                                2384972                       # Number of bytes of host memory used
host_seconds                                  1842.63                       # Real time elapsed on the host
sim_insts                                  1200000011                       # Number of instructions simulated
sim_ops                                    1200000011                       # Number of ops (including micro ops) simulated
system.voltage_domain.voltage                       1                       # Voltage in Volts
system.clk_domain.clock                          1000                       # Clock period in ticks
system.mem_ctrls0.pwrStateResidencyTicks::UNDEFINED 111420462055284                       # Cumulative time (in ticks) in various power states
system.mem_ctrls0.bytes_read::cpu.inst            128                       # Number of bytes read from this memory
system.mem_ctrls0.bytes_read::cpu.data            192                       # Number of bytes read from this memory
system.mem_ctrls0.bytes_read::switch_cpus.inst        16704                       # Number of bytes read from this memory
system.mem_ctrls0.bytes_read::switch_cpus.data      2454912                       # Number of bytes read from this memory
system.mem_ctrls0.bytes_read::switch_cpus_1.inst         5248                       # Number of bytes read from this memory
system.mem_ctrls0.bytes_read::switch_cpus_1.data      2023744                       # Number of bytes read from this memory
system.mem_ctrls0.bytes_read::total           4500928                       # Number of bytes read from this memory
system.mem_ctrls0.bytes_inst_read::cpu.inst          128                       # Number of instructions bytes read from this memory
system.mem_ctrls0.bytes_inst_read::switch_cpus.inst        16704                       # Number of instructions bytes read from this memory
system.mem_ctrls0.bytes_inst_read::switch_cpus_1.inst         5248                       # Number of instructions bytes read from this memory
system.mem_ctrls0.bytes_inst_read::total        22080                       # Number of instructions bytes read from this memory
system.mem_ctrls0.bytes_written::writebacks      2347712                       # Number of bytes written to this memory
system.mem_ctrls0.bytes_written::total        2347712                       # Number of bytes written to this memory
system.mem_ctrls0.num_reads::cpu.inst               2                       # Number of read requests responded to by this memory
system.mem_ctrls0.num_reads::cpu.data               3                       # Number of read requests responded to by this memory
system.mem_ctrls0.num_reads::switch_cpus.inst          261                       # Number of read requests responded to by this memory
system.mem_ctrls0.num_reads::switch_cpus.data        38358                       # Number of read requests responded to by this memory
system.mem_ctrls0.num_reads::switch_cpus_1.inst           82                       # Number of read requests responded to by this memory
system.mem_ctrls0.num_reads::switch_cpus_1.data        31621                       # Number of read requests responded to by this memory
system.mem_ctrls0.num_reads::total              70327                       # Number of read requests responded to by this memory
system.mem_ctrls0.num_writes::writebacks        36683                       # Number of write requests responded to by this memory
system.mem_ctrls0.num_writes::total             36683                       # Number of write requests responded to by this memory
system.mem_ctrls0.bw_read::cpu.inst               117                       # Total read bandwidth from this memory (bytes/s)
system.mem_ctrls0.bw_read::cpu.data               175                       # Total read bandwidth from this memory (bytes/s)
system.mem_ctrls0.bw_read::switch_cpus.inst        15265                       # Total read bandwidth from this memory (bytes/s)
system.mem_ctrls0.bw_read::switch_cpus.data      2243479                       # Total read bandwidth from this memory (bytes/s)
system.mem_ctrls0.bw_read::switch_cpus_1.inst         4796                       # Total read bandwidth from this memory (bytes/s)
system.mem_ctrls0.bw_read::switch_cpus_1.data      1849446                       # Total read bandwidth from this memory (bytes/s)
system.mem_ctrls0.bw_read::total              4113279                       # Total read bandwidth from this memory (bytes/s)
system.mem_ctrls0.bw_inst_read::cpu.inst          117                       # Instruction read bandwidth from this memory (bytes/s)
system.mem_ctrls0.bw_inst_read::switch_cpus.inst        15265                       # Instruction read bandwidth from this memory (bytes/s)
system.mem_ctrls0.bw_inst_read::switch_cpus_1.inst         4796                       # Instruction read bandwidth from this memory (bytes/s)
system.mem_ctrls0.bw_inst_read::total           20178                       # Instruction read bandwidth from this memory (bytes/s)
system.mem_ctrls0.bw_write::writebacks        2145512                       # Write bandwidth from this memory (bytes/s)
system.mem_ctrls0.bw_write::total             2145512                       # Write bandwidth from this memory (bytes/s)
system.mem_ctrls0.bw_total::writebacks        2145512                       # Total bandwidth to/from this memory (bytes/s)
system.mem_ctrls0.bw_total::cpu.inst              117                       # Total bandwidth to/from this memory (bytes/s)
system.mem_ctrls0.bw_total::cpu.data              175                       # Total bandwidth to/from this memory (bytes/s)
system.mem_ctrls0.bw_total::switch_cpus.inst        15265                       # Total bandwidth to/from this memory (bytes/s)
system.mem_ctrls0.bw_total::switch_cpus.data      2243479                       # Total bandwidth to/from this memory (bytes/s)
system.mem_ctrls0.bw_total::switch_cpus_1.inst         4796                       # Total bandwidth to/from this memory (bytes/s)
system.mem_ctrls0.bw_total::switch_cpus_1.data      1849446                       # Total bandwidth to/from this memory (bytes/s)
system.mem_ctrls0.bw_total::total             6258791                       # Total bandwidth to/from this memory (bytes/s)
system.mem_ctrls0.readReqs                      70327                       # Number of read requests accepted
system.mem_ctrls0.writeReqs                     36683                       # Number of write requests accepted
system.mem_ctrls0.readBursts                    70327                       # Number of DRAM read bursts, including those serviced by the write queue
system.mem_ctrls0.writeBursts                   36683                       # Number of DRAM write bursts, including those merged in the write queue
system.mem_ctrls0.bytesReadDRAM               4497472                       # Total number of bytes read from DRAM
system.mem_ctrls0.bytesReadWrQ                   3456                       # Total number of bytes read from write queue
system.mem_ctrls0.bytesWritten                2346048                       # Total number of bytes written to DRAM
system.mem_ctrls0.bytesReadSys                4500928                       # Total read bytes from the system interface side
system.mem_ctrls0.bytesWrittenSys             2347712                       # Total written bytes from the system interface side
system.mem_ctrls0.servicedByWrQ                    54                       # Number of DRAM read bursts serviced by the write queue
system.mem_ctrls0.mergedWrBursts                    0                       # Number of DRAM write bursts merged with an existing one
system.mem_ctrls0.neitherReadNorWriteReqs            0                       # Number of requests that are neither read nor write
system.mem_ctrls0.perBankRdBursts::0             4350                       # Per bank write bursts
system.mem_ctrls0.perBankRdBursts::1             3723                       # Per bank write bursts
system.mem_ctrls0.perBankRdBursts::2             4118                       # Per bank write bursts
system.mem_ctrls0.perBankRdBursts::3             5026                       # Per bank write bursts
system.mem_ctrls0.perBankRdBursts::4             4980                       # Per bank write bursts
system.mem_ctrls0.perBankRdBursts::5             4394                       # Per bank write bursts
system.mem_ctrls0.perBankRdBursts::6             3978                       # Per bank write bursts
system.mem_ctrls0.perBankRdBursts::7             4632                       # Per bank write bursts
system.mem_ctrls0.perBankRdBursts::8             4401                       # Per bank write bursts
system.mem_ctrls0.perBankRdBursts::9             3908                       # Per bank write bursts
system.mem_ctrls0.perBankRdBursts::10            4398                       # Per bank write bursts
system.mem_ctrls0.perBankRdBursts::11            4704                       # Per bank write bursts
system.mem_ctrls0.perBankRdBursts::12            4964                       # Per bank write bursts
system.mem_ctrls0.perBankRdBursts::13            4303                       # Per bank write bursts
system.mem_ctrls0.perBankRdBursts::14            4047                       # Per bank write bursts
system.mem_ctrls0.perBankRdBursts::15            4347                       # Per bank write bursts
system.mem_ctrls0.perBankWrBursts::0             2296                       # Per bank write bursts
system.mem_ctrls0.perBankWrBursts::1             1577                       # Per bank write bursts
system.mem_ctrls0.perBankWrBursts::2             2088                       # Per bank write bursts
system.mem_ctrls0.perBankWrBursts::3             2814                       # Per bank write bursts
system.mem_ctrls0.perBankWrBursts::4             2932                       # Per bank write bursts
system.mem_ctrls0.perBankWrBursts::5             2394                       # Per bank write bursts
system.mem_ctrls0.perBankWrBursts::6             1790                       # Per bank write bursts
system.mem_ctrls0.perBankWrBursts::7             2472                       # Per bank write bursts
system.mem_ctrls0.perBankWrBursts::8             2256                       # Per bank write bursts
system.mem_ctrls0.perBankWrBursts::9             1842                       # Per bank write bursts
system.mem_ctrls0.perBankWrBursts::10            2249                       # Per bank write bursts
system.mem_ctrls0.perBankWrBursts::11            2695                       # Per bank write bursts
system.mem_ctrls0.perBankWrBursts::12            2820                       # Per bank write bursts
system.mem_ctrls0.perBankWrBursts::13            2144                       # Per bank write bursts
system.mem_ctrls0.perBankWrBursts::14            1966                       # Per bank write bursts
system.mem_ctrls0.perBankWrBursts::15            2322                       # Per bank write bursts
system.mem_ctrls0.numRdRetry                        0                       # Number of times read queue was full causing retry
system.mem_ctrls0.numWrRetry                        0                       # Number of times write queue was full causing retry
system.mem_ctrls0.totGap                 1094235544125                       # Total gap between requests
system.mem_ctrls0.readPktSize::0                    0                       # Read request sizes (log2)
system.mem_ctrls0.readPktSize::1                    0                       # Read request sizes (log2)
system.mem_ctrls0.readPktSize::2                    0                       # Read request sizes (log2)
system.mem_ctrls0.readPktSize::3                    0                       # Read request sizes (log2)
system.mem_ctrls0.readPktSize::4                    0                       # Read request sizes (log2)
system.mem_ctrls0.readPktSize::5                    0                       # Read request sizes (log2)
system.mem_ctrls0.readPktSize::6                70327                       # Read request sizes (log2)
system.mem_ctrls0.writePktSize::0                   0                       # Write request sizes (log2)
system.mem_ctrls0.writePktSize::1                   0                       # Write request sizes (log2)
system.mem_ctrls0.writePktSize::2                   0                       # Write request sizes (log2)
system.mem_ctrls0.writePktSize::3                   0                       # Write request sizes (log2)
system.mem_ctrls0.writePktSize::4                   0                       # Write request sizes (log2)
system.mem_ctrls0.writePktSize::5                   0                       # Write request sizes (log2)
system.mem_ctrls0.writePktSize::6               36683                       # Write request sizes (log2)
system.mem_ctrls0.rdQLenPdf::0                  65511                       # What read queue length does an incoming req see
system.mem_ctrls0.rdQLenPdf::1                   4548                       # What read queue length does an incoming req see
system.mem_ctrls0.rdQLenPdf::2                    214                       # What read queue length does an incoming req see
system.mem_ctrls0.rdQLenPdf::3                      0                       # What read queue length does an incoming req see
system.mem_ctrls0.rdQLenPdf::4                      0                       # What read queue length does an incoming req see
system.mem_ctrls0.rdQLenPdf::5                      0                       # What read queue length does an incoming req see
system.mem_ctrls0.rdQLenPdf::6                      0                       # What read queue length does an incoming req see
system.mem_ctrls0.rdQLenPdf::7                      0                       # What read queue length does an incoming req see
system.mem_ctrls0.rdQLenPdf::8                      0                       # What read queue length does an incoming req see
system.mem_ctrls0.rdQLenPdf::9                      0                       # What read queue length does an incoming req see
system.mem_ctrls0.rdQLenPdf::10                     0                       # What read queue length does an incoming req see
system.mem_ctrls0.rdQLenPdf::11                     0                       # What read queue length does an incoming req see
system.mem_ctrls0.rdQLenPdf::12                     0                       # What read queue length does an incoming req see
system.mem_ctrls0.rdQLenPdf::13                     0                       # What read queue length does an incoming req see
system.mem_ctrls0.rdQLenPdf::14                     0                       # What read queue length does an incoming req see
system.mem_ctrls0.rdQLenPdf::15                     0                       # What read queue length does an incoming req see
system.mem_ctrls0.rdQLenPdf::16                     0                       # What read queue length does an incoming req see
system.mem_ctrls0.rdQLenPdf::17                     0                       # What read queue length does an incoming req see
system.mem_ctrls0.rdQLenPdf::18                     0                       # What read queue length does an incoming req see
system.mem_ctrls0.rdQLenPdf::19                     0                       # What read queue length does an incoming req see
system.mem_ctrls0.rdQLenPdf::20                     0                       # What read queue length does an incoming req see
system.mem_ctrls0.rdQLenPdf::21                     0                       # What read queue length does an incoming req see
system.mem_ctrls0.rdQLenPdf::22                     0                       # What read queue length does an incoming req see
system.mem_ctrls0.rdQLenPdf::23                     0                       # What read queue length does an incoming req see
system.mem_ctrls0.rdQLenPdf::24                     0                       # What read queue length does an incoming req see
system.mem_ctrls0.rdQLenPdf::25                     0                       # What read queue length does an incoming req see
system.mem_ctrls0.rdQLenPdf::26                     0                       # What read queue length does an incoming req see
system.mem_ctrls0.rdQLenPdf::27                     0                       # What read queue length does an incoming req see
system.mem_ctrls0.rdQLenPdf::28                     0                       # What read queue length does an incoming req see
system.mem_ctrls0.rdQLenPdf::29                     0                       # What read queue length does an incoming req see
system.mem_ctrls0.rdQLenPdf::30                     0                       # What read queue length does an incoming req see
system.mem_ctrls0.rdQLenPdf::31                     0                       # What read queue length does an incoming req see
system.mem_ctrls0.wrQLenPdf::0                      2                       # What write queue length does an incoming req see
system.mem_ctrls0.wrQLenPdf::1                      2                       # What write queue length does an incoming req see
system.mem_ctrls0.wrQLenPdf::2                      2                       # What write queue length does an incoming req see
system.mem_ctrls0.wrQLenPdf::3                      2                       # What write queue length does an incoming req see
system.mem_ctrls0.wrQLenPdf::4                      2                       # What write queue length does an incoming req see
system.mem_ctrls0.wrQLenPdf::5                      2                       # What write queue length does an incoming req see
system.mem_ctrls0.wrQLenPdf::6                      2                       # What write queue length does an incoming req see
system.mem_ctrls0.wrQLenPdf::7                      2                       # What write queue length does an incoming req see
system.mem_ctrls0.wrQLenPdf::8                      2                       # What write queue length does an incoming req see
system.mem_ctrls0.wrQLenPdf::9                      2                       # What write queue length does an incoming req see
system.mem_ctrls0.wrQLenPdf::10                     2                       # What write queue length does an incoming req see
system.mem_ctrls0.wrQLenPdf::11                     2                       # What write queue length does an incoming req see
system.mem_ctrls0.wrQLenPdf::12                     2                       # What write queue length does an incoming req see
system.mem_ctrls0.wrQLenPdf::13                     2                       # What write queue length does an incoming req see
system.mem_ctrls0.wrQLenPdf::14                     2                       # What write queue length does an incoming req see
system.mem_ctrls0.wrQLenPdf::15                  1853                       # What write queue length does an incoming req see
system.mem_ctrls0.wrQLenPdf::16                  1910                       # What write queue length does an incoming req see
system.mem_ctrls0.wrQLenPdf::17                  2042                       # What write queue length does an incoming req see
system.mem_ctrls0.wrQLenPdf::18                  2046                       # What write queue length does an incoming req see
system.mem_ctrls0.wrQLenPdf::19                  2045                       # What write queue length does an incoming req see
system.mem_ctrls0.wrQLenPdf::20                  2055                       # What write queue length does an incoming req see
system.mem_ctrls0.wrQLenPdf::21                  2074                       # What write queue length does an incoming req see
system.mem_ctrls0.wrQLenPdf::22                  2084                       # What write queue length does an incoming req see
system.mem_ctrls0.wrQLenPdf::23                  2081                       # What write queue length does an incoming req see
system.mem_ctrls0.wrQLenPdf::24                  2075                       # What write queue length does an incoming req see
system.mem_ctrls0.wrQLenPdf::25                  2049                       # What write queue length does an incoming req see
system.mem_ctrls0.wrQLenPdf::26                  2049                       # What write queue length does an incoming req see
system.mem_ctrls0.wrQLenPdf::27                  2035                       # What write queue length does an incoming req see
system.mem_ctrls0.wrQLenPdf::28                  2044                       # What write queue length does an incoming req see
system.mem_ctrls0.wrQLenPdf::29                  2047                       # What write queue length does an incoming req see
system.mem_ctrls0.wrQLenPdf::30                  2097                       # What write queue length does an incoming req see
system.mem_ctrls0.wrQLenPdf::31                  2024                       # What write queue length does an incoming req see
system.mem_ctrls0.wrQLenPdf::32                  2024                       # What write queue length does an incoming req see
system.mem_ctrls0.wrQLenPdf::33                    14                       # What write queue length does an incoming req see
system.mem_ctrls0.wrQLenPdf::34                     4                       # What write queue length does an incoming req see
system.mem_ctrls0.wrQLenPdf::35                     1                       # What write queue length does an incoming req see
system.mem_ctrls0.wrQLenPdf::36                     0                       # What write queue length does an incoming req see
system.mem_ctrls0.wrQLenPdf::37                     0                       # What write queue length does an incoming req see
system.mem_ctrls0.wrQLenPdf::38                     0                       # What write queue length does an incoming req see
system.mem_ctrls0.wrQLenPdf::39                     0                       # What write queue length does an incoming req see
system.mem_ctrls0.wrQLenPdf::40                     0                       # What write queue length does an incoming req see
system.mem_ctrls0.wrQLenPdf::41                     0                       # What write queue length does an incoming req see
system.mem_ctrls0.wrQLenPdf::42                     0                       # What write queue length does an incoming req see
system.mem_ctrls0.wrQLenPdf::43                     0                       # What write queue length does an incoming req see
system.mem_ctrls0.wrQLenPdf::44                     0                       # What write queue length does an incoming req see
system.mem_ctrls0.wrQLenPdf::45                     0                       # What write queue length does an incoming req see
system.mem_ctrls0.wrQLenPdf::46                     0                       # What write queue length does an incoming req see
system.mem_ctrls0.wrQLenPdf::47                     0                       # What write queue length does an incoming req see
system.mem_ctrls0.wrQLenPdf::48                     0                       # What write queue length does an incoming req see
system.mem_ctrls0.wrQLenPdf::49                     0                       # What write queue length does an incoming req see
system.mem_ctrls0.wrQLenPdf::50                     0                       # What write queue length does an incoming req see
system.mem_ctrls0.wrQLenPdf::51                     0                       # What write queue length does an incoming req see
system.mem_ctrls0.wrQLenPdf::52                     0                       # What write queue length does an incoming req see
system.mem_ctrls0.wrQLenPdf::53                     0                       # What write queue length does an incoming req see
system.mem_ctrls0.wrQLenPdf::54                     0                       # What write queue length does an incoming req see
system.mem_ctrls0.wrQLenPdf::55                     0                       # What write queue length does an incoming req see
system.mem_ctrls0.wrQLenPdf::56                     0                       # What write queue length does an incoming req see
system.mem_ctrls0.wrQLenPdf::57                     0                       # What write queue length does an incoming req see
system.mem_ctrls0.wrQLenPdf::58                     0                       # What write queue length does an incoming req see
system.mem_ctrls0.wrQLenPdf::59                     0                       # What write queue length does an incoming req see
system.mem_ctrls0.wrQLenPdf::60                     0                       # What write queue length does an incoming req see
system.mem_ctrls0.wrQLenPdf::61                     0                       # What write queue length does an incoming req see
system.mem_ctrls0.wrQLenPdf::62                     0                       # What write queue length does an incoming req see
system.mem_ctrls0.wrQLenPdf::63                     0                       # What write queue length does an incoming req see
system.mem_ctrls0.bytesPerActivate::samples        52920                       # Bytes accessed per row activation
system.mem_ctrls0.bytesPerActivate::mean   129.318216                       # Bytes accessed per row activation
system.mem_ctrls0.bytesPerActivate::gmean   107.587573                       # Bytes accessed per row activation
system.mem_ctrls0.bytesPerActivate::stdev    99.942231                       # Bytes accessed per row activation
system.mem_ctrls0.bytesPerActivate::0-127        23768     44.91%     44.91% # Bytes accessed per row activation
system.mem_ctrls0.bytesPerActivate::128-255        24558     46.41%     91.32% # Bytes accessed per row activation
system.mem_ctrls0.bytesPerActivate::256-383         2246      4.24%     95.56% # Bytes accessed per row activation
system.mem_ctrls0.bytesPerActivate::384-511         1252      2.37%     97.93% # Bytes accessed per row activation
system.mem_ctrls0.bytesPerActivate::512-639          703      1.33%     99.26% # Bytes accessed per row activation
system.mem_ctrls0.bytesPerActivate::640-767          292      0.55%     99.81% # Bytes accessed per row activation
system.mem_ctrls0.bytesPerActivate::768-895           90      0.17%     99.98% # Bytes accessed per row activation
system.mem_ctrls0.bytesPerActivate::896-1023           10      0.02%    100.00% # Bytes accessed per row activation
system.mem_ctrls0.bytesPerActivate::1024-1151            1      0.00%    100.00% # Bytes accessed per row activation
system.mem_ctrls0.bytesPerActivate::total        52920                       # Bytes accessed per row activation
system.mem_ctrls0.rdPerTurnAround::samples         2025                       # Reads before turning the bus around for writes
system.mem_ctrls0.rdPerTurnAround::mean     34.697778                       # Reads before turning the bus around for writes
system.mem_ctrls0.rdPerTurnAround::stdev   710.040872                       # Reads before turning the bus around for writes
system.mem_ctrls0.rdPerTurnAround::0-1023         2024     99.95%     99.95% # Reads before turning the bus around for writes
system.mem_ctrls0.rdPerTurnAround::31744-32767            1      0.05%    100.00% # Reads before turning the bus around for writes
system.mem_ctrls0.rdPerTurnAround::total         2025                       # Reads before turning the bus around for writes
system.mem_ctrls0.wrPerTurnAround::samples         2025                       # Writes before turning the bus around for reads
system.mem_ctrls0.wrPerTurnAround::mean     18.102222                       # Writes before turning the bus around for reads
system.mem_ctrls0.wrPerTurnAround::gmean    18.084330                       # Writes before turning the bus around for reads
system.mem_ctrls0.wrPerTurnAround::stdev     0.812404                       # Writes before turning the bus around for reads
system.mem_ctrls0.wrPerTurnAround::16             126      6.22%      6.22% # Writes before turning the bus around for reads
system.mem_ctrls0.wrPerTurnAround::17              42      2.07%      8.30% # Writes before turning the bus around for reads
system.mem_ctrls0.wrPerTurnAround::18            1444     71.31%     79.60% # Writes before turning the bus around for reads
system.mem_ctrls0.wrPerTurnAround::19             346     17.09%     96.69% # Writes before turning the bus around for reads
system.mem_ctrls0.wrPerTurnAround::20              56      2.77%     99.46% # Writes before turning the bus around for reads
system.mem_ctrls0.wrPerTurnAround::21               9      0.44%     99.90% # Writes before turning the bus around for reads
system.mem_ctrls0.wrPerTurnAround::22               1      0.05%     99.95% # Writes before turning the bus around for reads
system.mem_ctrls0.wrPerTurnAround::30               1      0.05%    100.00% # Writes before turning the bus around for reads
system.mem_ctrls0.wrPerTurnAround::total         2025                       # Writes before turning the bus around for reads
system.mem_ctrls0.totQLat                  1407285528                       # Total ticks spent queuing
system.mem_ctrls0.totMemAccLat             2724904278                       # Total ticks spent from burst creation until serviced by the DRAM
system.mem_ctrls0.totBusLat                 351365000                       # Total ticks spent in databus transfers
system.mem_ctrls0.avgQLat                    20025.98                       # Average queueing delay per DRAM burst
system.mem_ctrls0.avgBusLat                   5000.00                       # Average bus latency per DRAM burst
system.mem_ctrls0.avgMemAccLat               38775.98                       # Average memory access latency per DRAM burst
system.mem_ctrls0.avgRdBW                        4.11                       # Average DRAM read bandwidth in MiByte/s
system.mem_ctrls0.avgWrBW                        2.14                       # Average achieved write bandwidth in MiByte/s
system.mem_ctrls0.avgRdBWSys                     4.11                       # Average system read bandwidth in MiByte/s
system.mem_ctrls0.avgWrBWSys                     2.15                       # Average system write bandwidth in MiByte/s
system.mem_ctrls0.peakBW                     12800.00                       # Theoretical peak bandwidth in MiByte/s
system.mem_ctrls0.busUtil                        0.05                       # Data bus utilization in percentage
system.mem_ctrls0.busUtilRead                    0.03                       # Data bus utilization in percentage for reads
system.mem_ctrls0.busUtilWrite                   0.02                       # Data bus utilization in percentage for writes
system.mem_ctrls0.avgRdQLen                      1.00                       # Average read queue length when enqueuing
system.mem_ctrls0.avgWrQLen                      0.89                       # Average write queue length when enqueuing
system.mem_ctrls0.readRowHits                   43359                       # Number of row buffer hits during reads
system.mem_ctrls0.writeRowHits                  10651                       # Number of row buffer hits during writes
system.mem_ctrls0.readRowHitRate                61.70                       # Row buffer hit rate for reads
system.mem_ctrls0.writeRowHitRate               29.04                       # Row buffer hit rate for writes
system.mem_ctrls0.avgGap                  10225544.75                       # Average gap between requests
system.mem_ctrls0.pageHitRate                   50.50                       # Row buffer hit rate, read and write combined
system.mem_ctrls0_0.actEnergy               188867280                       # Energy for activate commands per rank (pJ)
system.mem_ctrls0_0.preEnergy               100385340                       # Energy for precharge commands per rank (pJ)
system.mem_ctrls0_0.readEnergy              251335140                       # Energy for read commands per rank (pJ)
system.mem_ctrls0_0.writeEnergy              95854860                       # Energy for write commands per rank (pJ)
system.mem_ctrls0_0.refreshEnergy        5306187120.000001                       # Energy for refresh commands per rank (pJ)
system.mem_ctrls0_0.actBackEnergy          2460793170                       # Energy for active background per rank (pJ)
system.mem_ctrls0_0.preBackEnergy           142567680                       # Energy for precharge background per rank (pJ)
system.mem_ctrls0_0.actPowerDownEnergy    20492176020                       # Energy for active power-down per rank (pJ)
system.mem_ctrls0_0.prePowerDownEnergy     5415778080                       # Energy for precharge power-down per rank (pJ)
system.mem_ctrls0_0.selfRefreshEnergy    247247581035                       # Energy for self refresh per rank (pJ)
system.mem_ctrls0_0.totalEnergy          281702224485                       # Total energy per rank (pJ)
system.mem_ctrls0_0.averagePower           257.440209                       # Core power per rank (mW)
system.mem_ctrls0_0.totalIdleTime        1088424555575                       # Total Idle time Per DRAM Rank
system.mem_ctrls0_0.memoryStateTime::IDLE    138094127                       # Time in different power states
system.mem_ctrls0_0.memoryStateTime::REF   2246602000                       # Time in different power states
system.mem_ctrls0_0.memoryStateTime::SREF 1029431421777                       # Time in different power states
system.mem_ctrls0_0.memoryStateTime::PRE_PDN  14104886954                       # Time in different power states
system.mem_ctrls0_0.memoryStateTime::ACT   3384193189                       # Time in different power states
system.mem_ctrls0_0.memoryStateTime::ACT_PDN  44938102980                       # Time in different power states
system.mem_ctrls0_1.actEnergy               188981520                       # Energy for activate commands per rank (pJ)
system.mem_ctrls0_1.preEnergy               100446060                       # Energy for precharge commands per rank (pJ)
system.mem_ctrls0_1.readEnergy              250414080                       # Energy for read commands per rank (pJ)
system.mem_ctrls0_1.writeEnergy              95494680                       # Energy for write commands per rank (pJ)
system.mem_ctrls0_1.refreshEnergy        5233044960.000001                       # Energy for refresh commands per rank (pJ)
system.mem_ctrls0_1.actBackEnergy          2563316220                       # Energy for active background per rank (pJ)
system.mem_ctrls0_1.preBackEnergy           136486560                       # Energy for precharge background per rank (pJ)
system.mem_ctrls0_1.actPowerDownEnergy    20270945340                       # Energy for active power-down per rank (pJ)
system.mem_ctrls0_1.prePowerDownEnergy     5296715520                       # Energy for precharge power-down per rank (pJ)
system.mem_ctrls0_1.selfRefreshEnergy    247362464280                       # Energy for self refresh per rank (pJ)
system.mem_ctrls0_1.totalEnergy          281499193590                       # Total energy per rank (pJ)
system.mem_ctrls0_1.averagePower           257.254665                       # Core power per rank (mW)
system.mem_ctrls0_1.totalIdleTime        1088210289320                       # Total Idle time Per DRAM Rank
system.mem_ctrls0_1.memoryStateTime::IDLE    125351107                       # Time in different power states
system.mem_ctrls0_1.memoryStateTime::REF   2215434000                       # Time in different power states
system.mem_ctrls0_1.memoryStateTime::SREF 1030017223777                       # Time in different power states
system.mem_ctrls0_1.memoryStateTime::PRE_PDN  13791733171                       # Time in different power states
system.mem_ctrls0_1.memoryStateTime::ACT   3642376791                       # Time in different power states
system.mem_ctrls0_1.memoryStateTime::ACT_PDN  44451182181                       # Time in different power states
system.mem_ctrls1.pwrStateResidencyTicks::UNDEFINED 111420462055284                       # Cumulative time (in ticks) in various power states
system.mem_ctrls1.bytes_read::cpu.inst             64                       # Number of bytes read from this memory
system.mem_ctrls1.bytes_read::cpu.data             64                       # Number of bytes read from this memory
system.mem_ctrls1.bytes_read::switch_cpus.inst        16768                       # Number of bytes read from this memory
system.mem_ctrls1.bytes_read::switch_cpus.data      2455168                       # Number of bytes read from this memory
system.mem_ctrls1.bytes_read::switch_cpus_1.inst         5120                       # Number of bytes read from this memory
system.mem_ctrls1.bytes_read::switch_cpus_1.data      2002304                       # Number of bytes read from this memory
system.mem_ctrls1.bytes_read::total           4479488                       # Number of bytes read from this memory
system.mem_ctrls1.bytes_inst_read::cpu.inst           64                       # Number of instructions bytes read from this memory
system.mem_ctrls1.bytes_inst_read::switch_cpus.inst        16768                       # Number of instructions bytes read from this memory
system.mem_ctrls1.bytes_inst_read::switch_cpus_1.inst         5120                       # Number of instructions bytes read from this memory
system.mem_ctrls1.bytes_inst_read::total        21952                       # Number of instructions bytes read from this memory
system.mem_ctrls1.bytes_written::writebacks      2327424                       # Number of bytes written to this memory
system.mem_ctrls1.bytes_written::total        2327424                       # Number of bytes written to this memory
system.mem_ctrls1.num_reads::cpu.inst               1                       # Number of read requests responded to by this memory
system.mem_ctrls1.num_reads::cpu.data               1                       # Number of read requests responded to by this memory
system.mem_ctrls1.num_reads::switch_cpus.inst          262                       # Number of read requests responded to by this memory
system.mem_ctrls1.num_reads::switch_cpus.data        38362                       # Number of read requests responded to by this memory
system.mem_ctrls1.num_reads::switch_cpus_1.inst           80                       # Number of read requests responded to by this memory
system.mem_ctrls1.num_reads::switch_cpus_1.data        31286                       # Number of read requests responded to by this memory
system.mem_ctrls1.num_reads::total              69992                       # Number of read requests responded to by this memory
system.mem_ctrls1.num_writes::writebacks        36366                       # Number of write requests responded to by this memory
system.mem_ctrls1.num_writes::total             36366                       # Number of write requests responded to by this memory
system.mem_ctrls1.bw_read::cpu.inst                58                       # Total read bandwidth from this memory (bytes/s)
system.mem_ctrls1.bw_read::cpu.data                58                       # Total read bandwidth from this memory (bytes/s)
system.mem_ctrls1.bw_read::switch_cpus.inst        15324                       # Total read bandwidth from this memory (bytes/s)
system.mem_ctrls1.bw_read::switch_cpus.data      2243713                       # Total read bandwidth from this memory (bytes/s)
system.mem_ctrls1.bw_read::switch_cpus_1.inst         4679                       # Total read bandwidth from this memory (bytes/s)
system.mem_ctrls1.bw_read::switch_cpus_1.data      1829853                       # Total read bandwidth from this memory (bytes/s)
system.mem_ctrls1.bw_read::total              4093686                       # Total read bandwidth from this memory (bytes/s)
system.mem_ctrls1.bw_inst_read::cpu.inst           58                       # Instruction read bandwidth from this memory (bytes/s)
system.mem_ctrls1.bw_inst_read::switch_cpus.inst        15324                       # Instruction read bandwidth from this memory (bytes/s)
system.mem_ctrls1.bw_inst_read::switch_cpus_1.inst         4679                       # Instruction read bandwidth from this memory (bytes/s)
system.mem_ctrls1.bw_inst_read::total           20061                       # Instruction read bandwidth from this memory (bytes/s)
system.mem_ctrls1.bw_write::writebacks        2126971                       # Write bandwidth from this memory (bytes/s)
system.mem_ctrls1.bw_write::total             2126971                       # Write bandwidth from this memory (bytes/s)
system.mem_ctrls1.bw_total::writebacks        2126971                       # Total bandwidth to/from this memory (bytes/s)
system.mem_ctrls1.bw_total::cpu.inst               58                       # Total bandwidth to/from this memory (bytes/s)
system.mem_ctrls1.bw_total::cpu.data               58                       # Total bandwidth to/from this memory (bytes/s)
system.mem_ctrls1.bw_total::switch_cpus.inst        15324                       # Total bandwidth to/from this memory (bytes/s)
system.mem_ctrls1.bw_total::switch_cpus.data      2243713                       # Total bandwidth to/from this memory (bytes/s)
system.mem_ctrls1.bw_total::switch_cpus_1.inst         4679                       # Total bandwidth to/from this memory (bytes/s)
system.mem_ctrls1.bw_total::switch_cpus_1.data      1829853                       # Total bandwidth to/from this memory (bytes/s)
system.mem_ctrls1.bw_total::total             6220657                       # Total bandwidth to/from this memory (bytes/s)
system.mem_ctrls1.readReqs                      69992                       # Number of read requests accepted
system.mem_ctrls1.writeReqs                     36366                       # Number of write requests accepted
system.mem_ctrls1.readBursts                    69992                       # Number of DRAM read bursts, including those serviced by the write queue
system.mem_ctrls1.writeBursts                   36366                       # Number of DRAM write bursts, including those merged in the write queue
system.mem_ctrls1.bytesReadDRAM               4476672                       # Total number of bytes read from DRAM
system.mem_ctrls1.bytesReadWrQ                   2816                       # Total number of bytes read from write queue
system.mem_ctrls1.bytesWritten                2326080                       # Total number of bytes written to DRAM
system.mem_ctrls1.bytesReadSys                4479488                       # Total read bytes from the system interface side
system.mem_ctrls1.bytesWrittenSys             2327424                       # Total written bytes from the system interface side
system.mem_ctrls1.servicedByWrQ                    44                       # Number of DRAM read bursts serviced by the write queue
system.mem_ctrls1.mergedWrBursts                    0                       # Number of DRAM write bursts merged with an existing one
system.mem_ctrls1.neitherReadNorWriteReqs            0                       # Number of requests that are neither read nor write
system.mem_ctrls1.perBankRdBursts::0             4360                       # Per bank write bursts
system.mem_ctrls1.perBankRdBursts::1             3791                       # Per bank write bursts
system.mem_ctrls1.perBankRdBursts::2             4047                       # Per bank write bursts
system.mem_ctrls1.perBankRdBursts::3             4988                       # Per bank write bursts
system.mem_ctrls1.perBankRdBursts::4             4908                       # Per bank write bursts
system.mem_ctrls1.perBankRdBursts::5             4300                       # Per bank write bursts
system.mem_ctrls1.perBankRdBursts::6             3964                       # Per bank write bursts
system.mem_ctrls1.perBankRdBursts::7             4554                       # Per bank write bursts
system.mem_ctrls1.perBankRdBursts::8             4430                       # Per bank write bursts
system.mem_ctrls1.perBankRdBursts::9             3900                       # Per bank write bursts
system.mem_ctrls1.perBankRdBursts::10            4410                       # Per bank write bursts
system.mem_ctrls1.perBankRdBursts::11            4647                       # Per bank write bursts
system.mem_ctrls1.perBankRdBursts::12            4961                       # Per bank write bursts
system.mem_ctrls1.perBankRdBursts::13            4323                       # Per bank write bursts
system.mem_ctrls1.perBankRdBursts::14            4017                       # Per bank write bursts
system.mem_ctrls1.perBankRdBursts::15            4348                       # Per bank write bursts
system.mem_ctrls1.perBankWrBursts::0             2285                       # Per bank write bursts
system.mem_ctrls1.perBankWrBursts::1             1640                       # Per bank write bursts
system.mem_ctrls1.perBankWrBursts::2             2015                       # Per bank write bursts
system.mem_ctrls1.perBankWrBursts::3             2770                       # Per bank write bursts
system.mem_ctrls1.perBankWrBursts::4             2870                       # Per bank write bursts
system.mem_ctrls1.perBankWrBursts::5             2277                       # Per bank write bursts
system.mem_ctrls1.perBankWrBursts::6             1807                       # Per bank write bursts
system.mem_ctrls1.perBankWrBursts::7             2400                       # Per bank write bursts
system.mem_ctrls1.perBankWrBursts::8             2262                       # Per bank write bursts
system.mem_ctrls1.perBankWrBursts::9             1841                       # Per bank write bursts
system.mem_ctrls1.perBankWrBursts::10            2270                       # Per bank write bursts
system.mem_ctrls1.perBankWrBursts::11            2643                       # Per bank write bursts
system.mem_ctrls1.perBankWrBursts::12            2798                       # Per bank write bursts
system.mem_ctrls1.perBankWrBursts::13            2169                       # Per bank write bursts
system.mem_ctrls1.perBankWrBursts::14            1952                       # Per bank write bursts
system.mem_ctrls1.perBankWrBursts::15            2346                       # Per bank write bursts
system.mem_ctrls1.numRdRetry                        0                       # Number of times read queue was full causing retry
system.mem_ctrls1.numWrRetry                        0                       # Number of times write queue was full causing retry
system.mem_ctrls1.totGap                 1094242549113                       # Total gap between requests
system.mem_ctrls1.readPktSize::0                    0                       # Read request sizes (log2)
system.mem_ctrls1.readPktSize::1                    0                       # Read request sizes (log2)
system.mem_ctrls1.readPktSize::2                    0                       # Read request sizes (log2)
system.mem_ctrls1.readPktSize::3                    0                       # Read request sizes (log2)
system.mem_ctrls1.readPktSize::4                    0                       # Read request sizes (log2)
system.mem_ctrls1.readPktSize::5                    0                       # Read request sizes (log2)
system.mem_ctrls1.readPktSize::6                69992                       # Read request sizes (log2)
system.mem_ctrls1.writePktSize::0                   0                       # Write request sizes (log2)
system.mem_ctrls1.writePktSize::1                   0                       # Write request sizes (log2)
system.mem_ctrls1.writePktSize::2                   0                       # Write request sizes (log2)
system.mem_ctrls1.writePktSize::3                   0                       # Write request sizes (log2)
system.mem_ctrls1.writePktSize::4                   0                       # Write request sizes (log2)
system.mem_ctrls1.writePktSize::5                   0                       # Write request sizes (log2)
system.mem_ctrls1.writePktSize::6               36366                       # Write request sizes (log2)
system.mem_ctrls1.rdQLenPdf::0                  65295                       # What read queue length does an incoming req see
system.mem_ctrls1.rdQLenPdf::1                   4486                       # What read queue length does an incoming req see
system.mem_ctrls1.rdQLenPdf::2                    166                       # What read queue length does an incoming req see
system.mem_ctrls1.rdQLenPdf::3                      1                       # What read queue length does an incoming req see
system.mem_ctrls1.rdQLenPdf::4                      0                       # What read queue length does an incoming req see
system.mem_ctrls1.rdQLenPdf::5                      0                       # What read queue length does an incoming req see
system.mem_ctrls1.rdQLenPdf::6                      0                       # What read queue length does an incoming req see
system.mem_ctrls1.rdQLenPdf::7                      0                       # What read queue length does an incoming req see
system.mem_ctrls1.rdQLenPdf::8                      0                       # What read queue length does an incoming req see
system.mem_ctrls1.rdQLenPdf::9                      0                       # What read queue length does an incoming req see
system.mem_ctrls1.rdQLenPdf::10                     0                       # What read queue length does an incoming req see
system.mem_ctrls1.rdQLenPdf::11                     0                       # What read queue length does an incoming req see
system.mem_ctrls1.rdQLenPdf::12                     0                       # What read queue length does an incoming req see
system.mem_ctrls1.rdQLenPdf::13                     0                       # What read queue length does an incoming req see
system.mem_ctrls1.rdQLenPdf::14                     0                       # What read queue length does an incoming req see
system.mem_ctrls1.rdQLenPdf::15                     0                       # What read queue length does an incoming req see
system.mem_ctrls1.rdQLenPdf::16                     0                       # What read queue length does an incoming req see
system.mem_ctrls1.rdQLenPdf::17                     0                       # What read queue length does an incoming req see
system.mem_ctrls1.rdQLenPdf::18                     0                       # What read queue length does an incoming req see
system.mem_ctrls1.rdQLenPdf::19                     0                       # What read queue length does an incoming req see
system.mem_ctrls1.rdQLenPdf::20                     0                       # What read queue length does an incoming req see
system.mem_ctrls1.rdQLenPdf::21                     0                       # What read queue length does an incoming req see
system.mem_ctrls1.rdQLenPdf::22                     0                       # What read queue length does an incoming req see
system.mem_ctrls1.rdQLenPdf::23                     0                       # What read queue length does an incoming req see
system.mem_ctrls1.rdQLenPdf::24                     0                       # What read queue length does an incoming req see
system.mem_ctrls1.rdQLenPdf::25                     0                       # What read queue length does an incoming req see
system.mem_ctrls1.rdQLenPdf::26                     0                       # What read queue length does an incoming req see
system.mem_ctrls1.rdQLenPdf::27                     0                       # What read queue length does an incoming req see
system.mem_ctrls1.rdQLenPdf::28                     0                       # What read queue length does an incoming req see
system.mem_ctrls1.rdQLenPdf::29                     0                       # What read queue length does an incoming req see
system.mem_ctrls1.rdQLenPdf::30                     0                       # What read queue length does an incoming req see
system.mem_ctrls1.rdQLenPdf::31                     0                       # What read queue length does an incoming req see
system.mem_ctrls1.wrQLenPdf::0                      2                       # What write queue length does an incoming req see
system.mem_ctrls1.wrQLenPdf::1                      2                       # What write queue length does an incoming req see
system.mem_ctrls1.wrQLenPdf::2                      2                       # What write queue length does an incoming req see
system.mem_ctrls1.wrQLenPdf::3                      2                       # What write queue length does an incoming req see
system.mem_ctrls1.wrQLenPdf::4                      2                       # What write queue length does an incoming req see
system.mem_ctrls1.wrQLenPdf::5                      2                       # What write queue length does an incoming req see
system.mem_ctrls1.wrQLenPdf::6                      2                       # What write queue length does an incoming req see
system.mem_ctrls1.wrQLenPdf::7                      2                       # What write queue length does an incoming req see
system.mem_ctrls1.wrQLenPdf::8                      2                       # What write queue length does an incoming req see
system.mem_ctrls1.wrQLenPdf::9                      2                       # What write queue length does an incoming req see
system.mem_ctrls1.wrQLenPdf::10                     2                       # What write queue length does an incoming req see
system.mem_ctrls1.wrQLenPdf::11                     2                       # What write queue length does an incoming req see
system.mem_ctrls1.wrQLenPdf::12                     2                       # What write queue length does an incoming req see
system.mem_ctrls1.wrQLenPdf::13                     2                       # What write queue length does an incoming req see
system.mem_ctrls1.wrQLenPdf::14                     2                       # What write queue length does an incoming req see
system.mem_ctrls1.wrQLenPdf::15                  1855                       # What write queue length does an incoming req see
system.mem_ctrls1.wrQLenPdf::16                  1917                       # What write queue length does an incoming req see
system.mem_ctrls1.wrQLenPdf::17                  2017                       # What write queue length does an incoming req see
system.mem_ctrls1.wrQLenPdf::18                  2027                       # What write queue length does an incoming req see
system.mem_ctrls1.wrQLenPdf::19                  2028                       # What write queue length does an incoming req see
system.mem_ctrls1.wrQLenPdf::20                  2028                       # What write queue length does an incoming req see
system.mem_ctrls1.wrQLenPdf::21                  2060                       # What write queue length does an incoming req see
system.mem_ctrls1.wrQLenPdf::22                  2058                       # What write queue length does an incoming req see
system.mem_ctrls1.wrQLenPdf::23                  2068                       # What write queue length does an incoming req see
system.mem_ctrls1.wrQLenPdf::24                  2044                       # What write queue length does an incoming req see
system.mem_ctrls1.wrQLenPdf::25                  2041                       # What write queue length does an incoming req see
system.mem_ctrls1.wrQLenPdf::26                  2020                       # What write queue length does an incoming req see
system.mem_ctrls1.wrQLenPdf::27                  2020                       # What write queue length does an incoming req see
system.mem_ctrls1.wrQLenPdf::28                  2025                       # What write queue length does an incoming req see
system.mem_ctrls1.wrQLenPdf::29                  2024                       # What write queue length does an incoming req see
system.mem_ctrls1.wrQLenPdf::30                  2069                       # What write queue length does an incoming req see
system.mem_ctrls1.wrQLenPdf::31                  2007                       # What write queue length does an incoming req see
system.mem_ctrls1.wrQLenPdf::32                  2005                       # What write queue length does an incoming req see
system.mem_ctrls1.wrQLenPdf::33                    17                       # What write queue length does an incoming req see
system.mem_ctrls1.wrQLenPdf::34                     6                       # What write queue length does an incoming req see
system.mem_ctrls1.wrQLenPdf::35                     0                       # What write queue length does an incoming req see
system.mem_ctrls1.wrQLenPdf::36                     0                       # What write queue length does an incoming req see
system.mem_ctrls1.wrQLenPdf::37                     0                       # What write queue length does an incoming req see
system.mem_ctrls1.wrQLenPdf::38                     0                       # What write queue length does an incoming req see
system.mem_ctrls1.wrQLenPdf::39                     0                       # What write queue length does an incoming req see
system.mem_ctrls1.wrQLenPdf::40                     0                       # What write queue length does an incoming req see
system.mem_ctrls1.wrQLenPdf::41                     0                       # What write queue length does an incoming req see
system.mem_ctrls1.wrQLenPdf::42                     0                       # What write queue length does an incoming req see
system.mem_ctrls1.wrQLenPdf::43                     0                       # What write queue length does an incoming req see
system.mem_ctrls1.wrQLenPdf::44                     0                       # What write queue length does an incoming req see
system.mem_ctrls1.wrQLenPdf::45                     0                       # What write queue length does an incoming req see
system.mem_ctrls1.wrQLenPdf::46                     0                       # What write queue length does an incoming req see
system.mem_ctrls1.wrQLenPdf::47                     0                       # What write queue length does an incoming req see
system.mem_ctrls1.wrQLenPdf::48                     0                       # What write queue length does an incoming req see
system.mem_ctrls1.wrQLenPdf::49                     0                       # What write queue length does an incoming req see
system.mem_ctrls1.wrQLenPdf::50                     0                       # What write queue length does an incoming req see
system.mem_ctrls1.wrQLenPdf::51                     0                       # What write queue length does an incoming req see
system.mem_ctrls1.wrQLenPdf::52                     0                       # What write queue length does an incoming req see
system.mem_ctrls1.wrQLenPdf::53                     0                       # What write queue length does an incoming req see
system.mem_ctrls1.wrQLenPdf::54                     0                       # What write queue length does an incoming req see
system.mem_ctrls1.wrQLenPdf::55                     0                       # What write queue length does an incoming req see
system.mem_ctrls1.wrQLenPdf::56                     0                       # What write queue length does an incoming req see
system.mem_ctrls1.wrQLenPdf::57                     0                       # What write queue length does an incoming req see
system.mem_ctrls1.wrQLenPdf::58                     0                       # What write queue length does an incoming req see
system.mem_ctrls1.wrQLenPdf::59                     0                       # What write queue length does an incoming req see
system.mem_ctrls1.wrQLenPdf::60                     0                       # What write queue length does an incoming req see
system.mem_ctrls1.wrQLenPdf::61                     0                       # What write queue length does an incoming req see
system.mem_ctrls1.wrQLenPdf::62                     0                       # What write queue length does an incoming req see
system.mem_ctrls1.wrQLenPdf::63                     0                       # What write queue length does an incoming req see
system.mem_ctrls1.bytesPerActivate::samples        52641                       # Bytes accessed per row activation
system.mem_ctrls1.bytesPerActivate::mean   129.229156                       # Bytes accessed per row activation
system.mem_ctrls1.bytesPerActivate::gmean   107.627583                       # Bytes accessed per row activation
system.mem_ctrls1.bytesPerActivate::stdev    99.464764                       # Bytes accessed per row activation
system.mem_ctrls1.bytesPerActivate::64-127        23575     44.78%     44.78% # Bytes accessed per row activation
system.mem_ctrls1.bytesPerActivate::128-191        18655     35.44%     80.22% # Bytes accessed per row activation
system.mem_ctrls1.bytesPerActivate::192-255         5832     11.08%     91.30% # Bytes accessed per row activation
system.mem_ctrls1.bytesPerActivate::256-319         1376      2.61%     93.92% # Bytes accessed per row activation
system.mem_ctrls1.bytesPerActivate::320-383          900      1.71%     95.63% # Bytes accessed per row activation
system.mem_ctrls1.bytesPerActivate::384-447          701      1.33%     96.96% # Bytes accessed per row activation
system.mem_ctrls1.bytesPerActivate::448-511          515      0.98%     97.94% # Bytes accessed per row activation
system.mem_ctrls1.bytesPerActivate::512-575          430      0.82%     98.75% # Bytes accessed per row activation
system.mem_ctrls1.bytesPerActivate::576-639          284      0.54%     99.29% # Bytes accessed per row activation
system.mem_ctrls1.bytesPerActivate::640-703          168      0.32%     99.61% # Bytes accessed per row activation
system.mem_ctrls1.bytesPerActivate::704-767          100      0.19%     99.80% # Bytes accessed per row activation
system.mem_ctrls1.bytesPerActivate::768-831           58      0.11%     99.91% # Bytes accessed per row activation
system.mem_ctrls1.bytesPerActivate::832-895           35      0.07%     99.98% # Bytes accessed per row activation
system.mem_ctrls1.bytesPerActivate::896-959           10      0.02%    100.00% # Bytes accessed per row activation
system.mem_ctrls1.bytesPerActivate::960-1023            2      0.00%    100.00% # Bytes accessed per row activation
system.mem_ctrls1.bytesPerActivate::total        52641                       # Bytes accessed per row activation
system.mem_ctrls1.rdPerTurnAround::samples         2006                       # Reads before turning the bus around for writes
system.mem_ctrls1.rdPerTurnAround::mean     34.868893                       # Reads before turning the bus around for writes
system.mem_ctrls1.rdPerTurnAround::stdev   713.656288                       # Reads before turning the bus around for writes
system.mem_ctrls1.rdPerTurnAround::0-1023         2005     99.95%     99.95% # Reads before turning the bus around for writes
system.mem_ctrls1.rdPerTurnAround::31744-32767            1      0.05%    100.00% # Reads before turning the bus around for writes
system.mem_ctrls1.rdPerTurnAround::total         2006                       # Reads before turning the bus around for writes
system.mem_ctrls1.wrPerTurnAround::samples         2006                       # Writes before turning the bus around for reads
system.mem_ctrls1.wrPerTurnAround::mean     18.118146                       # Writes before turning the bus around for reads
system.mem_ctrls1.wrPerTurnAround::gmean    18.100563                       # Writes before turning the bus around for reads
system.mem_ctrls1.wrPerTurnAround::stdev     0.813539                       # Writes before turning the bus around for reads
system.mem_ctrls1.wrPerTurnAround::16             115      5.73%      5.73% # Writes before turning the bus around for reads
system.mem_ctrls1.wrPerTurnAround::17              31      1.55%      7.28% # Writes before turning the bus around for reads
system.mem_ctrls1.wrPerTurnAround::18            1453     72.43%     79.71% # Writes before turning the bus around for reads
system.mem_ctrls1.wrPerTurnAround::19             340     16.95%     96.66% # Writes before turning the bus around for reads
system.mem_ctrls1.wrPerTurnAround::20              56      2.79%     99.45% # Writes before turning the bus around for reads
system.mem_ctrls1.wrPerTurnAround::21               8      0.40%     99.85% # Writes before turning the bus around for reads
system.mem_ctrls1.wrPerTurnAround::22               2      0.10%     99.95% # Writes before turning the bus around for reads
system.mem_ctrls1.wrPerTurnAround::32               1      0.05%    100.00% # Writes before turning the bus around for reads
system.mem_ctrls1.wrPerTurnAround::total         2006                       # Writes before turning the bus around for reads
system.mem_ctrls1.totQLat                  1385753249                       # Total ticks spent queuing
system.mem_ctrls1.totMemAccLat             2697278249                       # Total ticks spent from burst creation until serviced by the DRAM
system.mem_ctrls1.totBusLat                 349740000                       # Total ticks spent in databus transfers
system.mem_ctrls1.avgQLat                    19811.19                       # Average queueing delay per DRAM burst
system.mem_ctrls1.avgBusLat                   5000.00                       # Average bus latency per DRAM burst
system.mem_ctrls1.avgMemAccLat               38561.19                       # Average memory access latency per DRAM burst
system.mem_ctrls1.avgRdBW                        4.09                       # Average DRAM read bandwidth in MiByte/s
system.mem_ctrls1.avgWrBW                        2.13                       # Average achieved write bandwidth in MiByte/s
system.mem_ctrls1.avgRdBWSys                     4.09                       # Average system read bandwidth in MiByte/s
system.mem_ctrls1.avgWrBWSys                     2.13                       # Average system write bandwidth in MiByte/s
system.mem_ctrls1.peakBW                     12800.00                       # Theoretical peak bandwidth in MiByte/s
system.mem_ctrls1.busUtil                        0.05                       # Data bus utilization in percentage
system.mem_ctrls1.busUtilRead                    0.03                       # Data bus utilization in percentage for reads
system.mem_ctrls1.busUtilWrite                   0.02                       # Data bus utilization in percentage for writes
system.mem_ctrls1.avgRdQLen                      1.00                       # Average read queue length when enqueuing
system.mem_ctrls1.avgWrQLen                      0.89                       # Average write queue length when enqueuing
system.mem_ctrls1.readRowHits                   43181                       # Number of row buffer hits during reads
system.mem_ctrls1.writeRowHits                  10471                       # Number of row buffer hits during writes
system.mem_ctrls1.readRowHitRate                61.73                       # Row buffer hit rate for reads
system.mem_ctrls1.writeRowHitRate               28.79                       # Row buffer hit rate for writes
system.mem_ctrls1.avgGap                  10288295.65                       # Average gap between requests
system.mem_ctrls1.pageHitRate                   50.47                       # Row buffer hit rate, read and write combined
system.mem_ctrls1_0.actEnergy               188139000                       # Energy for activate commands per rank (pJ)
system.mem_ctrls1_0.preEnergy                99998250                       # Energy for precharge commands per rank (pJ)
system.mem_ctrls1_0.readEnergy              249271680                       # Energy for read commands per rank (pJ)
system.mem_ctrls1_0.writeEnergy              94294080                       # Energy for write commands per rank (pJ)
system.mem_ctrls1_0.refreshEnergy        5317250640.000001                       # Energy for refresh commands per rank (pJ)
system.mem_ctrls1_0.actBackEnergy          2483478030                       # Energy for active background per rank (pJ)
system.mem_ctrls1_0.preBackEnergy           143970240                       # Energy for precharge background per rank (pJ)
system.mem_ctrls1_0.actPowerDownEnergy    20453146980                       # Energy for active power-down per rank (pJ)
system.mem_ctrls1_0.prePowerDownEnergy     5485096800                       # Energy for precharge power-down per rank (pJ)
system.mem_ctrls1_0.selfRefreshEnergy    247211254965                       # Energy for self refresh per rank (pJ)
system.mem_ctrls1_0.totalEnergy          281726182995                       # Total energy per rank (pJ)
system.mem_ctrls1_0.averagePower           257.462104                       # Core power per rank (mW)
system.mem_ctrls1_0.totalIdleTime        1088326030942                       # Total Idle time Per DRAM Rank
system.mem_ctrls1_0.memoryStateTime::IDLE    140599498                       # Time in different power states
system.mem_ctrls1_0.memoryStateTime::REF   2251318000                       # Time in different power states
system.mem_ctrls1_0.memoryStateTime::SREF 1029284019027                       # Time in different power states
system.mem_ctrls1_0.memoryStateTime::PRE_PDN  14285296777                       # Time in different power states
system.mem_ctrls1_0.memoryStateTime::ACT   3429369913                       # Time in different power states
system.mem_ctrls1_0.memoryStateTime::ACT_PDN  44852697812                       # Time in different power states
system.mem_ctrls1_1.actEnergy               187717740                       # Energy for activate commands per rank (pJ)
system.mem_ctrls1_1.preEnergy                99774345                       # Energy for precharge commands per rank (pJ)
system.mem_ctrls1_1.readEnergy              250157040                       # Energy for read commands per rank (pJ)
system.mem_ctrls1_1.writeEnergy              95426820                       # Energy for write commands per rank (pJ)
system.mem_ctrls1_1.refreshEnergy        5213376480.000001                       # Energy for refresh commands per rank (pJ)
system.mem_ctrls1_1.actBackEnergy          2511438810                       # Energy for active background per rank (pJ)
system.mem_ctrls1_1.preBackEnergy           140765280                       # Energy for precharge background per rank (pJ)
system.mem_ctrls1_1.actPowerDownEnergy    20163639990                       # Energy for active power-down per rank (pJ)
system.mem_ctrls1_1.prePowerDownEnergy     5347680480                       # Energy for precharge power-down per rank (pJ)
system.mem_ctrls1_1.selfRefreshEnergy    247408228710                       # Energy for self refresh per rank (pJ)
system.mem_ctrls1_1.totalEnergy          281418899745                       # Total energy per rank (pJ)
system.mem_ctrls1_1.averagePower           257.181286                       # Core power per rank (mW)
system.mem_ctrls1_1.totalIdleTime        1088316885841                       # Total Idle time Per DRAM Rank
system.mem_ctrls1_1.memoryStateTime::IDLE    137332492                       # Time in different power states
system.mem_ctrls1_1.memoryStateTime::REF   2207048000                       # Time in different power states
system.mem_ctrls1_1.memoryStateTime::SREF 1030222882277                       # Time in different power states
system.mem_ctrls1_1.memoryStateTime::PRE_PDN  13925347909                       # Time in different power states
system.mem_ctrls1_1.memoryStateTime::ACT   3534075326                       # Time in different power states
system.mem_ctrls1_1.memoryStateTime::ACT_PDN  44216615023                       # Time in different power states
system.pwrStateResidencyTicks::UNDEFINED 111420462055284                       # Cumulative time (in ticks) in various power states
system.cpu.branchPred.lookups                      16                       # Number of BP lookups
system.cpu.branchPred.condPredicted                16                       # Number of conditional branches predicted
system.cpu.branchPred.condIncorrect                13                       # Number of conditional branches incorrect
system.cpu.branchPred.BTBLookups                    0                       # Number of BTB lookups
system.cpu.branchPred.BTBHits                       0                       # Number of BTB hits
system.cpu.branchPred.BTBCorrect                    0                       # Number of correct BTB predictions (this stat may not work properly.
system.cpu.branchPred.BTBHitPct                   nan                       # BTB Hit Percentage
system.cpu.branchPred.usedRAS                       0                       # Number of times the RAS was used to get a target.
system.cpu.branchPred.RASInCorrect                  0                       # Number of incorrect RAS predictions.
system.cpu.branchPred.indirectLookups               0                       # Number of indirect predictor lookups.
system.cpu.branchPred.indirectHits                  0                       # Number of indirect target hits.
system.cpu.branchPred.indirectMisses                0                       # Number of indirect misses.
system.cpu.branchPredindirectMispredicted            0                       # Number of mispredicted indirect branches.
system.cpu_voltage_domain.voltage                   1                       # Voltage in Volts
system.cpu_clk_domain.clock                       333                       # Clock period in ticks
system.cpu.dtb.fetch_hits                           0                       # ITB hits
system.cpu.dtb.fetch_misses                         0                       # ITB misses
system.cpu.dtb.fetch_acv                            0                       # ITB acv
system.cpu.dtb.fetch_accesses                       0                       # ITB accesses
system.cpu.dtb.read_hits                           28                       # DTB read hits
system.cpu.dtb.read_misses                          0                       # DTB read misses
system.cpu.dtb.read_acv                             0                       # DTB read access violations
system.cpu.dtb.read_accesses                       28                       # DTB read accesses
system.cpu.dtb.write_hits                          14                       # DTB write hits
system.cpu.dtb.write_misses                         0                       # DTB write misses
system.cpu.dtb.write_acv                            0                       # DTB write access violations
system.cpu.dtb.write_accesses                      14                       # DTB write accesses
system.cpu.dtb.data_hits                           42                       # DTB hits
system.cpu.dtb.data_misses                          0                       # DTB misses
system.cpu.dtb.data_acv                             0                       # DTB access violations
system.cpu.dtb.data_accesses                       42                       # DTB accesses
system.cpu.itb.fetch_hits                          30                       # ITB hits
system.cpu.itb.fetch_misses                         0                       # ITB misses
system.cpu.itb.fetch_acv                            0                       # ITB acv
system.cpu.itb.fetch_accesses                      30                       # ITB accesses
system.cpu.itb.read_hits                            0                       # DTB read hits
system.cpu.itb.read_misses                          0                       # DTB read misses
system.cpu.itb.read_acv                             0                       # DTB read access violations
system.cpu.itb.read_accesses                        0                       # DTB read accesses
system.cpu.itb.write_hits                           0                       # DTB write hits
system.cpu.itb.write_misses                         0                       # DTB write misses
system.cpu.itb.write_acv                            0                       # DTB write access violations
system.cpu.itb.write_accesses                       0                       # DTB write accesses
system.cpu.itb.data_hits                            0                       # DTB hits
system.cpu.itb.data_misses                          0                       # DTB misses
system.cpu.itb.data_acv                             0                       # DTB access violations
system.cpu.itb.data_accesses                        0                       # DTB accesses
system.cpu.workload.num_syscalls                    6                       # Number of system calls
system.cpu.pwrStateResidencyTicks::ON    1094243301027                       # Cumulative time (in ticks) in various power states
system.cpu.numCycles                             1015                       # number of cpu cycles simulated
system.cpu.numWorkItemsStarted                      0                       # number of work items this cpu started
system.cpu.numWorkItemsCompleted                    0                       # number of work items this cpu completed
system.cpu.fetch.icacheStallCycles                176                       # Number of cycles fetch is stalled on an Icache miss
system.cpu.fetch.Insts                            176                       # Number of instructions fetch has processed
system.cpu.fetch.Branches                          16                       # Number of branches that fetch encountered
system.cpu.fetch.Cycles                            29                       # Number of cycles fetch has run and was not squashing or blocked
system.cpu.fetch.SquashCycles                      29                       # Number of cycles fetch has spent squashing
system.cpu.fetch.PendingDrainCycles                23                       # Number of cycles fetch has spent waiting on pipes to drain
system.cpu.fetch.CacheLines                        30                       # Number of cache lines fetched
system.cpu.fetch.IcacheSquashes                    15                       # Number of outstanding Icache misses that were squashed
system.cpu.fetch.rateDist::samples                242                       # Number of instructions fetched each cycle (Total)
system.cpu.fetch.rateDist::mean              0.727273                       # Number of instructions fetched each cycle (Total)
system.cpu.fetch.rateDist::stdev             2.093261                       # Number of instructions fetched each cycle (Total)
system.cpu.fetch.rateDist::underflows               0      0.00%      0.00% # Number of instructions fetched each cycle (Total)
system.cpu.fetch.rateDist::0                      213     88.02%     88.02% # Number of instructions fetched each cycle (Total)
[...]
system.switch_cpus_1.iq.int_inst_queue_writes    202639962                       # Number of integer instruction queue writes
system.switch_cpus_1.iq.int_inst_queue_wakeup_accesses    200868684                       # Number of integer instruction queue wakeup accesses
system.switch_cpus_1.iq.fp_inst_queue_reads        21488                       # Number of floating instruction queue reads
system.switch_cpus_1.iq.fp_inst_queue_writes        21013                       # Number of floating instruction queue writes
system.switch_cpus_1.iq.fp_inst_queue_wakeup_accesses         9486                       # Number of floating instruction queue wakeup accesses
system.switch_cpus_1.iq.int_alu_accesses    204535228                       # Number of integer alu accesses
system.switch_cpus_1.iq.fp_alu_accesses         10872                       # Number of floating point alu accesses
system.switch_cpus_1.iew.lsq.thread0.forwLoads      2217743                       # Number of loads that had data forwarded from stores
system.switch_cpus_1.iew.lsq.thread0.invAddrLoads            0                       # Number of loads ignored due to an invalid address
system.switch_cpus_1.iew.lsq.thread0.squashedLoads       350566                       # Number of loads squashed
system.switch_cpus_1.iew.lsq.thread0.ignoredResponses          210                       # Number of memory responses ignored because the instruction is squashed
system.switch_cpus_1.iew.lsq.thread0.memOrderViolation         3495                       # Number of memory ordering violations
system.switch_cpus_1.iew.lsq.thread0.squashedStores       139481                       # Number of stores squashed
system.switch_cpus_1.iew.lsq.thread0.invAddrSwpfs            0                       # Number of software prefetches ignored due to an invalid address
system.switch_cpus_1.iew.lsq.thread0.blockedLoads            0                       # Number of blocked loads due to partial load-store forwarding
system.switch_cpus_1.iew.lsq.thread0.rescheduledLoads           38                       # Number of loads that were rescheduled
system.switch_cpus_1.iew.lsq.thread0.cacheBlocked       425403                       # Number of times an access to memory failed due to the cache being blocked
system.switch_cpus_1.iew.iewIdleCycles              0                       # Number of cycles IEW is idle
system.switch_cpus_1.iew.iewSquashCycles        36241                       # Number of cycles IEW is squashing
system.switch_cpus_1.iew.iewBlockCycles        526615                       # Number of cycles IEW is blocking
system.switch_cpus_1.iew.iewUnblockCycles      3929464                       # Number of cycles IEW is unblocking
system.switch_cpus_1.iew.iewDispatchedInsts    201462689                       # Number of instructions dispatched to IQ
system.switch_cpus_1.iew.iewDispSquashedInsts         1167                       # Number of squashed instructions skipped by dispatch
system.switch_cpus_1.iew.iewDispLoadInsts     53740366                       # Number of dispatched load instructions
system.switch_cpus_1.iew.iewDispStoreInsts     22318074                       # Number of dispatched store instructions
system.switch_cpus_1.iew.iewDispNonSpecInsts         1878                       # Number of dispatched non-speculative instructions
system.switch_cpus_1.iew.iewIQFullEvents         9823                       # Number of times the IQ has become full, causing a stall
system.switch_cpus_1.iew.iewLSQFullEvents      3905471                       # Number of times the LSQ has become full, causing a stall
system.switch_cpus_1.iew.memOrderViolationEvents         3495                       # Number of memory order violations
system.switch_cpus_1.iew.predictedTakenIncorrect        11681                       # Number of branches that were predicted taken incorrectly
system.switch_cpus_1.iew.predictedNotTakenIncorrect        16824                       # Number of branches that were predicted not taken incorrectly
system.switch_cpus_1.iew.branchMispredicts        28505                       # Number of branch mispredicts detected at execute
system.switch_cpus_1.iew.iewExecutedInsts    201359041                       # Number of executed instructions
system.switch_cpus_1.iew.iewExecLoadInsts     54077875                       # Number of load instructions executed
system.switch_cpus_1.iew.iewExecSquashedInsts        67064                       # Number of squashed instructions skipped in execute
system.switch_cpus_1.iew.exec_swp                   0                       # number of swp insts executed
system.switch_cpus_1.iew.exec_nop              133894                       # number of nop insts executed
system.switch_cpus_1.iew.exec_refs           76339639                       # number of memory reference insts executed
system.switch_cpus_1.iew.exec_branches        9159863                       # Number of branches executed
system.switch_cpus_1.iew.exec_stores         22261764                       # Number of stores executed
system.switch_cpus_1.iew.exec_rate           2.366713                       # Inst execution rate
system.switch_cpus_1.iew.wb_sent            200930351                       # cumulative count of insts sent to commit
system.switch_cpus_1.iew.wb_count           200878170                       # cumulative count of insts written-back
system.switch_cpus_1.iew.wb_producers       130017024                       # num instructions producing a value
system.switch_cpus_1.iew.wb_consumers       178499553                       # num instructions consuming a value
system.switch_cpus_1.iew.wb_rate             2.361061                       # insts written-back per cycle
system.switch_cpus_1.iew.wb_fanout           0.728389                       # average fanout of values written-back
system.switch_cpus_1.commit.commitSquashedInsts      1268466                       # The number of squashed insts skipped by commit
system.switch_cpus_1.commit.commitNonSpecStalls         2565                       # The number of times commit has been forced to stall to communicate backwards
system.switch_cpus_1.commit.branchMispredicts        27230                       # The number of times a branch was mispredicted
system.switch_cpus_1.commit.committed_per_cycle::samples     84819250                       # Number of insts commited each cycle
system.switch_cpus_1.commit.committed_per_cycle::mean     2.359177                       # Number of insts commited each cycle
system.switch_cpus_1.commit.committed_per_cycle::stdev     3.317227                       # Number of insts commited each cycle
system.switch_cpus_1.commit.committed_per_cycle::underflows            0      0.00%      0.00% # Number of insts commited each cycle
system.switch_cpus_1.commit.committed_per_cycle::0     44982958     53.03%     53.03% # Number of insts commited each cycle
system.switch_cpus_1.commit.committed_per_cycle::1     11503838     13.56%     66.60% # Number of insts commited each cycle
system.switch_cpus_1.commit.committed_per_cycle::2      2517266      2.97%     69.56% # Number of insts commited each cycle
system.switch_cpus_1.commit.committed_per_cycle::3      2935963      3.46%     73.03% # Number of insts commited each cycle
system.switch_cpus_1.commit.committed_per_cycle::4       423496      0.50%     73.53% # Number of insts commited each cycle
system.switch_cpus_1.commit.committed_per_cycle::5      1969804      2.32%     75.85% # Number of insts commited each cycle
system.switch_cpus_1.commit.committed_per_cycle::6       204688      0.24%     76.09% # Number of insts commited each cycle
system.switch_cpus_1.commit.committed_per_cycle::7       263677      0.31%     76.40% # Number of insts commited each cycle
system.switch_cpus_1.commit.committed_per_cycle::8     20017560     23.60%    100.00% # Number of insts commited each cycle
system.switch_cpus_1.commit.committed_per_cycle::overflows            0      0.00%    100.00% # Number of insts commited each cycle
system.switch_cpus_1.commit.committed_per_cycle::min_value            0                       # Number of insts commited each cycle
system.switch_cpus_1.commit.committed_per_cycle::max_value            8                       # Number of insts commited each cycle
system.switch_cpus_1.commit.committed_per_cycle::total     84819250                       # Number of insts commited each cycle
system.switch_cpus_1.commit.committedInsts    200103610                       # Number of instructions committed
system.switch_cpus_1.commit.committedOps    200103610                       # Number of ops (including micro ops) committed
system.switch_cpus_1.commit.swp_count               0                       # Number of s/w prefetches committed
system.switch_cpus_1.commit.refs             75568371                       # Number of memory references committed
system.switch_cpus_1.commit.loads            53389787                       # Number of loads committed
system.switch_cpus_1.commit.membars              1282                       # Number of memory barriers committed
system.switch_cpus_1.commit.branches          9081009                       # Number of branches committed
system.switch_cpus_1.commit.fp_insts             7063                       # Number of committed floating point instructions.
system.switch_cpus_1.commit.int_insts       199966042                       # Number of committed integer instructions.
system.switch_cpus_1.commit.function_calls        26169                       # Number of function calls committed.
system.switch_cpus_1.commit.op_class_0::No_OpClass       103604      0.05%      0.05% # Class of committed instruction
system.switch_cpus_1.commit.op_class_0::IntAlu    124425131     62.18%     62.23% # Class of committed instruction
system.switch_cpus_1.commit.op_class_0::IntMult           14      0.00%     62.23% # Class of committed instruction
system.switch_cpus_1.commit.op_class_0::IntDiv            0      0.00%     62.23% # Class of committed instruction
system.switch_cpus_1.commit.op_class_0::FloatAdd         3080      0.00%     62.23% # Class of committed instruction
system.switch_cpus_1.commit.op_class_0::FloatCmp          511      0.00%     62.23% # Class of committed instruction
system.switch_cpus_1.commit.op_class_0::FloatCvt          406      0.00%     62.23% # Class of committed instruction
system.switch_cpus_1.commit.op_class_0::FloatMult         1162      0.00%     62.23% # Class of committed instruction
system.switch_cpus_1.commit.op_class_0::FloatMultAcc            0      0.00%     62.23% # Class of committed instruction
system.switch_cpus_1.commit.op_class_0::FloatDiv           49      0.00%     62.23% # Class of committed instruction
system.switch_cpus_1.commit.op_class_0::FloatMisc            0      0.00%     62.23% # Class of committed instruction
system.switch_cpus_1.commit.op_class_0::FloatSqrt            0      0.00%     62.23% # Class of committed instruction
system.switch_cpus_1.commit.op_class_0::SimdAdd            0      0.00%     62.23% # Class of committed instruction
system.switch_cpus_1.commit.op_class_0::SimdAddAcc            0      0.00%     62.23% # Class of committed instruction
system.switch_cpus_1.commit.op_class_0::SimdAlu            0      0.00%     62.23% # Class of committed instruction
system.switch_cpus_1.commit.op_class_0::SimdCmp            0      0.00%     62.23% # Class of committed instruction
system.switch_cpus_1.commit.op_class_0::SimdCvt            0      0.00%     62.23% # Class of committed instruction
system.switch_cpus_1.commit.op_class_0::SimdMisc            0      0.00%     62.23% # Class of committed instruction
system.switch_cpus_1.commit.op_class_0::SimdMult            0      0.00%     62.23% # Class of committed instruction
system.switch_cpus_1.commit.op_class_0::SimdMultAcc            0      0.00%     62.23% # Class of committed instruction
system.switch_cpus_1.commit.op_class_0::SimdShift            0      0.00%     62.23% # Class of committed instruction
system.switch_cpus_1.commit.op_class_0::SimdShiftAcc            0      0.00%     62.23% # Class of committed instruction
system.switch_cpus_1.commit.op_class_0::SimdSqrt            0      0.00%     62.23% # Class of committed instruction
system.switch_cpus_1.commit.op_class_0::SimdFloatAdd            0      0.00%     62.23% # Class of committed instruction
system.switch_cpus_1.commit.op_class_0::SimdFloatAlu            0      0.00%     62.23% # Class of committed instruction
system.switch_cpus_1.commit.op_class_0::SimdFloatCmp            0      0.00%     62.23% # Class of committed instruction
system.switch_cpus_1.commit.op_class_0::SimdFloatCvt            0      0.00%     62.23% # Class of committed instruction
system.switch_cpus_1.commit.op_class_0::SimdFloatDiv            0      0.00%     62.23% # Class of committed instruction
system.switch_cpus_1.commit.op_class_0::SimdFloatMisc            0      0.00%     62.23% # Class of committed instruction
system.switch_cpus_1.commit.op_class_0::SimdFloatMult            0      0.00%     62.23% # Class of committed instruction
system.switch_cpus_1.commit.op_class_0::SimdFloatMultAcc            0      0.00%     62.23% # Class of committed instruction
system.switch_cpus_1.commit.op_class_0::SimdFloatSqrt            0      0.00%     62.23% # Class of committed instruction
system.switch_cpus_1.commit.op_class_0::MemRead     53389445     26.68%     88.92% # Class of committed instruction
system.switch_cpus_1.commit.op_class_0::MemWrite     22178353     11.08%    100.00% # Class of committed instruction
system.switch_cpus_1.commit.op_class_0::FloatMemRead         1624      0.00%    100.00% # Class of committed instruction
system.switch_cpus_1.commit.op_class_0::FloatMemWrite          231      0.00%    100.00% # Class of committed instruction
system.switch_cpus_1.commit.op_class_0::IprAccess            0      0.00%    100.00% # Class of committed instruction
system.switch_cpus_1.commit.op_class_0::InstPrefetch            0      0.00%    100.00% # Class of committed instruction
system.switch_cpus_1.commit.op_class_0::total    200103610                       # Class of committed instruction
system.switch_cpus_1.commit.bw_lim_events     20017560                       # number cycles where commit BW limit reached
system.switch_cpus_1.rob.rob_reads          266094635                       # The number of ROB reads
system.switch_cpus_1.rob.rob_writes         402930941                       # The number of ROB writes
system.switch_cpus_1.timesIdled                   946                       # Number of times that the entire CPU went into an idle state and unscheduled itself
system.switch_cpus_1.idleCycles                 76085                       # Total number of cycles that the CPU has spent unscheduled due to idling
system.switch_cpus_1.committedInsts         200000006                       # Number of Instructions Simulated
system.switch_cpus_1.committedOps           200000006                       # Number of Ops (including micro ops) Simulated
system.switch_cpus_1.cpi                     0.425398                       # CPI: Cycles Per Instruction
system.switch_cpus_1.cpi_total               0.425398                       # CPI: Total CPI of All Threads
system.switch_cpus_1.ipc                     2.350740                       # IPC: Instructions Per Cycle
system.switch_cpus_1.ipc_total               2.350740                       # IPC: Total IPC of All Threads
system.switch_cpus_1.int_regfile_reads      323291516                       # number of integer regfile reads
system.switch_cpus_1.int_regfile_writes     169528135                       # number of integer regfile writes
system.switch_cpus_1.fp_regfile_reads           12344                       # number of floating regfile reads
system.switch_cpus_1.fp_regfile_writes           8098                       # number of floating regfile writes
system.switch_cpus_1.misc_regfile_reads         13722                       # number of misc regfile reads
system.switch_cpus_1.misc_regfile_writes         2564                       # number of misc regfile writes
system.tol3bus.snoop_filter.tot_requests      5443144                       # Total number of requests made to the snoop filter.
system.tol3bus.snoop_filter.hit_single_requests      2719250                       # Number of requests hitting in the snoop filter with a single holder of the requested data.
system.tol3bus.snoop_filter.hit_multi_requests            0                       # Number of requests hitting in the snoop filter with multiple (>1) holders of the requested data.
system.tol3bus.snoop_filter.tot_snoops            798                       # Total number of snoops made to the snoop filter.
system.tol3bus.snoop_filter.hit_single_snoops          798                       # Number of snoops hitting in the snoop filter with a single holder of the requested data.
system.tol3bus.snoop_filter.hit_multi_snoops            0                       # Number of snoops hitting in the snoop filter with multiple (>1) holders of the requested data.
system.tol3bus.pwrStateResidencyTicks::UNDEFINED 111420462055284                       # Cumulative time (in ticks) in various power states
system.tol3bus.trans_dist::ReadResp            206219                       # Transaction distribution
system.tol3bus.trans_dist::WritebackDirty      2625323                       # Transaction distribution
system.tol3bus.trans_dist::CleanEvict          168657                       # Transaction distribution
system.tol3bus.trans_dist::ReadExReq          2517675                       # Transaction distribution
system.tol3bus.trans_dist::ReadExResp         2517675                       # Transaction distribution
system.tol3bus.trans_dist::ReadSharedReq       206219                       # Transaction distribution
system.tol3bus.pkt_count_system.cpu.l2.mem_side::system.l3.cpu_side      8167038                       # Packet count per connected master and slave (bytes)
system.tol3bus.pkt_size_system.cpu.l2.mem_side::system.l3.cpu_side    337674752                       # Cumulative packet size per connected master and slave (bytes)
system.tol3bus.snoops                           74730                       # Total snoops (count)
system.tol3bus.snoopTraffic                   4675136                       # Total snoop traffic (bytes)
system.tol3bus.snoop_fanout::samples          2798624                       # Request fanout histogram
system.tol3bus.snoop_fanout::mean            0.000285                       # Request fanout histogram
system.tol3bus.snoop_fanout::stdev           0.016884                       # Request fanout histogram
system.tol3bus.snoop_fanout::underflows             0      0.00%      0.00% # Request fanout histogram
system.tol3bus.snoop_fanout::0                2797826     99.97%     99.97% # Request fanout histogram
system.tol3bus.snoop_fanout::1                    798      0.03%    100.00% # Request fanout histogram
system.tol3bus.snoop_fanout::overflows              0      0.00%    100.00% # Request fanout histogram
system.tol3bus.snoop_fanout::min_value              0                       # Request fanout histogram
system.tol3bus.snoop_fanout::max_value              1                       # Request fanout histogram
system.tol3bus.snoop_fanout::total            2798624                       # Request fanout histogram
system.tol3bus.reqLayer0.occupancy         2662474194                       # Layer occupancy (ticks)
system.tol3bus.reqLayer0.utilization              0.2                       # Layer utilization (%)
system.tol3bus.respLayer0.occupancy        1814113404                       # Layer occupancy (ticks)
system.tol3bus.respLayer0.utilization             0.2                       # Layer utilization (%)

---------- End Simulation Statistics   ----------
