
---------- Begin Simulation Statistics ----------
sim_seconds                                 12.976653                       # Number of seconds simulated
sim_ticks                                12976652993607                       # Number of ticks simulated
final_tick                               175058836156107                       # Number of ticks from beginning of simulation (restored from checkpoints and never reset)
sim_freq                                 1000000000000                       # Frequency of simulated ticks
host_inst_rate                                  42943                       # Simulator instruction rate (inst/s)
host_op_rate                                    42943                       # Simulator op (including micro ops) rate (op/s)
host_tick_rate                              464377097                       # Simulator tick rate (ticks/s)
host_mem_usage                                2689544                       # Number of bytes of host memory used
host_seconds                                 27944.21                       # Real time elapsed on the host
sim_insts                                  1200000012                       # Number of instructions simulated
sim_ops                                    1200000012                       # Number of ops (including micro ops) simulated
system.voltage_domain.voltage                       1                       # Voltage in Volts
system.clk_domain.clock                          1000                       # Clock period in ticks
system.mem_ctrls0.pwrStateResidencyTicks::UNDEFINED 175058836156107                       # Cumulative time (in ticks) in various power states
system.mem_ctrls0.bytes_read::cpu.inst            128                       # Number of bytes read from this memory
system.mem_ctrls0.bytes_read::switch_cpus.inst         1472                       # Number of bytes read from this memory
system.mem_ctrls0.bytes_read::switch_cpus.data   1820506176                       # Number of bytes read from this memory
system.mem_ctrls0.bytes_read::switch_cpus_1.inst          128                       # Number of bytes read from this memory
system.mem_ctrls0.bytes_read::switch_cpus_1.data    363394752                       # Number of bytes read from this memory
system.mem_ctrls0.bytes_read::total        2183902656                       # Number of bytes read from this memory
system.mem_ctrls0.bytes_inst_read::cpu.inst          128                       # Number of instructions bytes read from this memory
system.mem_ctrls0.bytes_inst_read::switch_cpus.inst         1472                       # Number of instructions bytes read from this memory
system.mem_ctrls0.bytes_inst_read::switch_cpus_1.inst          128                       # Number of instructions bytes read from this memory
system.mem_ctrls0.bytes_inst_read::total         1728                       # Number of instructions bytes read from this memory
system.mem_ctrls0.bytes_written::writebacks      3562880                       # Number of bytes written to this memory
system.mem_ctrls0.bytes_written::total        3562880                       # Number of bytes written to this memory
system.mem_ctrls0.num_reads::cpu.inst               2                       # Number of read requests responded to by this memory
system.mem_ctrls0.num_reads::switch_cpus.inst           23                       # Number of read requests responded to by this memory
system.mem_ctrls0.num_reads::switch_cpus.data     28445409                       # Number of read requests responded to by this memory
system.mem_ctrls0.num_reads::switch_cpus_1.inst            2                       # Number of read requests responded to by this memory
system.mem_ctrls0.num_reads::switch_cpus_1.data      5678043                       # Number of read requests responded to by this memory
system.mem_ctrls0.num_reads::total           34123479                       # Number of read requests responded to by this memory
system.mem_ctrls0.num_writes::writebacks        55670                       # Number of write requests responded to by this memory
system.mem_ctrls0.num_writes::total             55670                       # Number of write requests responded to by this memory
system.mem_ctrls0.bw_read::cpu.inst                10                       # Total read bandwidth from this memory (bytes/s)
system.mem_ctrls0.bw_read::switch_cpus.inst          113                       # Total read bandwidth from this memory (bytes/s)
system.mem_ctrls0.bw_read::switch_cpus.data    140290888                       # Total read bandwidth from this memory (bytes/s)
system.mem_ctrls0.bw_read::switch_cpus_1.inst           10                       # Total read bandwidth from this memory (bytes/s)
system.mem_ctrls0.bw_read::switch_cpus_1.data     28003735                       # Total read bandwidth from this memory (bytes/s)
system.mem_ctrls0.bw_read::total            168294757                       # Total read bandwidth from this memory (bytes/s)
system.mem_ctrls0.bw_inst_read::cpu.inst           10                       # Instruction read bandwidth from this memory (bytes/s)
system.mem_ctrls0.bw_inst_read::switch_cpus.inst          113                       # Instruction read bandwidth from this memory (bytes/s)
system.mem_ctrls0.bw_inst_read::switch_cpus_1.inst           10                       # Instruction read bandwidth from this memory (bytes/s)
system.mem_ctrls0.bw_inst_read::total             133                       # Instruction read bandwidth from this memory (bytes/s)
system.mem_ctrls0.bw_write::writebacks         274561                       # Write bandwidth from this memory (bytes/s)
system.mem_ctrls0.bw_write::total              274561                       # Write bandwidth from this memory (bytes/s)
system.mem_ctrls0.bw_total::writebacks         274561                       # Total bandwidth to/from this memory (bytes/s)
system.mem_ctrls0.bw_total::cpu.inst               10                       # Total bandwidth to/from this memory (bytes/s)
system.mem_ctrls0.bw_total::switch_cpus.inst          113                       # Total bandwidth to/from this memory (bytes/s)
system.mem_ctrls0.bw_total::switch_cpus.data    140290888                       # Total bandwidth to/from this memory (bytes/s)
system.mem_ctrls0.bw_total::switch_cpus_1.inst           10                       # Total bandwidth to/from this memory (bytes/s)
system.mem_ctrls0.bw_total::switch_cpus_1.data     28003735                       # Total bandwidth to/from this memory (bytes/s)
system.mem_ctrls0.bw_total::total           168569317                       # Total bandwidth to/from this memory (bytes/s)
system.mem_ctrls0.readReqs                   34123479                       # Number of read requests accepted
system.mem_ctrls0.writeReqs                     55670                       # Number of write requests accepted
system.mem_ctrls0.readBursts                 34123479                       # Number of DRAM read bursts, including those serviced by the write queue
system.mem_ctrls0.writeBursts                   55670                       # Number of DRAM write bursts, including those merged in the write queue
system.mem_ctrls0.bytesReadDRAM            2183596992                       # Total number of bytes read from DRAM
system.mem_ctrls0.bytesReadWrQ                 305664                       # Total number of bytes read from write queue
system.mem_ctrls0.bytesWritten                3546688                       # Total number of bytes written to DRAM
system.mem_ctrls0.bytesReadSys             2183902656                       # Total read bytes from the system interface side
system.mem_ctrls0.bytesWrittenSys             3562880                       # Total written bytes from the system interface side
system.mem_ctrls0.servicedByWrQ                  4776                       # Number of DRAM read bursts serviced by the write queue
system.mem_ctrls0.mergedWrBursts                  224                       # Number of DRAM write bursts merged with an existing one
system.mem_ctrls0.neitherReadNorWriteReqs            0                       # Number of requests that are neither read nor write
system.mem_ctrls0.perBankRdBursts::0          2128767                       # Per bank write bursts
system.mem_ctrls0.perBankRdBursts::1          2128027                       # Per bank write bursts
system.mem_ctrls0.perBankRdBursts::2          2136325                       # Per bank write bursts
system.mem_ctrls0.perBankRdBursts::3          2130618                       # Per bank write bursts
system.mem_ctrls0.perBankRdBursts::4          2130623                       # Per bank write bursts
system.mem_ctrls0.perBankRdBursts::5          2128699                       # Per bank write bursts
system.mem_ctrls0.perBankRdBursts::6          2138018                       # Per bank write bursts
system.mem_ctrls0.perBankRdBursts::7          2132276                       # Per bank write bursts
system.mem_ctrls0.perBankRdBursts::8          2142007                       # Per bank write bursts
system.mem_ctrls0.perBankRdBursts::9          2132995                       # Per bank write bursts
system.mem_ctrls0.perBankRdBursts::10         2143458                       # Per bank write bursts
system.mem_ctrls0.perBankRdBursts::11         2133608                       # Per bank write bursts
system.mem_ctrls0.perBankRdBursts::12         2128166                       # Per bank write bursts
system.mem_ctrls0.perBankRdBursts::13         2127722                       # Per bank write bursts
system.mem_ctrls0.perBankRdBursts::14         2138553                       # Per bank write bursts
system.mem_ctrls0.perBankRdBursts::15         2118841                       # Per bank write bursts
system.mem_ctrls0.perBankWrBursts::0             3283                       # Per bank write bursts
system.mem_ctrls0.perBankWrBursts::1             3282                       # Per bank write bursts
system.mem_ctrls0.perBankWrBursts::2             3215                       # Per bank write bursts
system.mem_ctrls0.perBankWrBursts::3             4051                       # Per bank write bursts
system.mem_ctrls0.perBankWrBursts::4             4604                       # Per bank write bursts
system.mem_ctrls0.perBankWrBursts::5             3351                       # Per bank write bursts
system.mem_ctrls0.perBankWrBursts::6             3285                       # Per bank write bursts
system.mem_ctrls0.perBankWrBursts::7             3494                       # Per bank write bursts
system.mem_ctrls0.perBankWrBursts::8             3531                       # Per bank write bursts
system.mem_ctrls0.perBankWrBursts::9             3293                       # Per bank write bursts
system.mem_ctrls0.perBankWrBursts::10            3370                       # Per bank write bursts
system.mem_ctrls0.perBankWrBursts::11            3380                       # Per bank write bursts
system.mem_ctrls0.perBankWrBursts::12            3322                       # Per bank write bursts
system.mem_ctrls0.perBankWrBursts::13            3318                       # Per bank write bursts
system.mem_ctrls0.perBankWrBursts::14            3309                       # Per bank write bursts
system.mem_ctrls0.perBankWrBursts::15            3329                       # Per bank write bursts
system.mem_ctrls0.numRdRetry                        0                       # Number of times read queue was full causing retry
system.mem_ctrls0.numWrRetry                        0                       # Number of times write queue was full causing retry
system.mem_ctrls0.totGap                 12976652168523                       # Total gap between requests
system.mem_ctrls0.readPktSize::0                    0                       # Read request sizes (log2)
system.mem_ctrls0.readPktSize::1                    0                       # Read request sizes (log2)
system.mem_ctrls0.readPktSize::2                    0                       # Read request sizes (log2)
system.mem_ctrls0.readPktSize::3                    0                       # Read request sizes (log2)
system.mem_ctrls0.readPktSize::4                    0                       # Read request sizes (log2)
system.mem_ctrls0.readPktSize::5                    0                       # Read request sizes (log2)
system.mem_ctrls0.readPktSize::6             34123479                       # Read request sizes (log2)
system.mem_ctrls0.writePktSize::0                   0                       # Write request sizes (log2)
system.mem_ctrls0.writePktSize::1                   0                       # Write request sizes (log2)
system.mem_ctrls0.writePktSize::2                   0                       # Write request sizes (log2)
system.mem_ctrls0.writePktSize::3                   0                       # Write request sizes (log2)
system.mem_ctrls0.writePktSize::4                   0                       # Write request sizes (log2)
system.mem_ctrls0.writePktSize::5                   0                       # Write request sizes (log2)
system.mem_ctrls0.writePktSize::6               55670                       # Write request sizes (log2)
system.mem_ctrls0.rdQLenPdf::0               34118169                       # What read queue length does an incoming req see
system.mem_ctrls0.rdQLenPdf::1                    508                       # What read queue length does an incoming req see
system.mem_ctrls0.rdQLenPdf::2                     26                       # What read queue length does an incoming req see
system.mem_ctrls0.rdQLenPdf::3                      0                       # What read queue length does an incoming req see
system.mem_ctrls0.rdQLenPdf::4                      0                       # What read queue length does an incoming req see
system.mem_ctrls0.rdQLenPdf::5                      0                       # What read queue length does an incoming req see
system.mem_ctrls0.rdQLenPdf::6                      0                       # What read queue length does an incoming req see
system.mem_ctrls0.rdQLenPdf::7                      0                       # What read queue length does an incoming req see
system.mem_ctrls0.rdQLenPdf::8                      0                       # What read queue length does an incoming req see
system.mem_ctrls0.rdQLenPdf::9                      0                       # What read queue length does an incoming req see
system.mem_ctrls0.rdQLenPdf::10                     0                       # What read queue length does an incoming req see
system.mem_ctrls0.rdQLenPdf::11                     0                       # What read queue length does an incoming req see
system.mem_ctrls0.rdQLenPdf::12                     0                       # What read queue length does an incoming req see
system.mem_ctrls0.rdQLenPdf::13                     0                       # What read queue length does an incoming req see
system.mem_ctrls0.rdQLenPdf::14                     0                       # What read queue length does an incoming req see
system.mem_ctrls0.rdQLenPdf::15                     0                       # What read queue length does an incoming req see
system.mem_ctrls0.rdQLenPdf::16                     0                       # What read queue length does an incoming req see
system.mem_ctrls0.rdQLenPdf::17                     0                       # What read queue length does an incoming req see
system.mem_ctrls0.rdQLenPdf::18                     0                       # What read queue length does an incoming req see
system.mem_ctrls0.rdQLenPdf::19                     0                       # What read queue length does an incoming req see
system.mem_ctrls0.rdQLenPdf::20                     0                       # What read queue length does an incoming req see
system.mem_ctrls0.rdQLenPdf::21                     0                       # What read queue length does an incoming req see
system.mem_ctrls0.rdQLenPdf::22                     0                       # What read queue length does an incoming req see
system.mem_ctrls0.rdQLenPdf::23                     0                       # What read queue length does an incoming req see
system.mem_ctrls0.rdQLenPdf::24                     0                       # What read queue length does an incoming req see
system.mem_ctrls0.rdQLenPdf::25                     0                       # What read queue length does an incoming req see
system.mem_ctrls0.rdQLenPdf::26                     0                       # What read queue length does an incoming req see
system.mem_ctrls0.rdQLenPdf::27                     0                       # What read queue length does an incoming req see
system.mem_ctrls0.rdQLenPdf::28                     0                       # What read queue length does an incoming req see
system.mem_ctrls0.rdQLenPdf::29                     0                       # What read queue length does an incoming req see
system.mem_ctrls0.rdQLenPdf::30                     0                       # What read queue length does an incoming req see
system.mem_ctrls0.rdQLenPdf::31                     0                       # What read queue length does an incoming req see
system.mem_ctrls0.wrQLenPdf::0                      2                       # What write queue length does an incoming req see
system.mem_ctrls0.wrQLenPdf::1                      2                       # What write queue length does an incoming req see
system.mem_ctrls0.wrQLenPdf::2                      2                       # What write queue length does an incoming req see
system.mem_ctrls0.wrQLenPdf::3                      2                       # What write queue length does an incoming req see
system.mem_ctrls0.wrQLenPdf::4                      2                       # What write queue length does an incoming req see
system.mem_ctrls0.wrQLenPdf::5                      2                       # What write queue length does an incoming req see
system.mem_ctrls0.wrQLenPdf::6                      2                       # What write queue length does an incoming req see
system.mem_ctrls0.wrQLenPdf::7                      2                       # What write queue length does an incoming req see
system.mem_ctrls0.wrQLenPdf::8                      2                       # What write queue length does an incoming req see
system.mem_ctrls0.wrQLenPdf::9                      2                       # What write queue length does an incoming req see
system.mem_ctrls0.wrQLenPdf::10                     2                       # What write queue length does an incoming req see
system.mem_ctrls0.wrQLenPdf::11                     2                       # What write queue length does an incoming req see
system.mem_ctrls0.wrQLenPdf::12                     2                       # What write queue length does an incoming req see
system.mem_ctrls0.wrQLenPdf::13                     2                       # What write queue length does an incoming req see
system.mem_ctrls0.wrQLenPdf::14                     2                       # What write queue length does an incoming req see
system.mem_ctrls0.wrQLenPdf::15                  2025                       # What write queue length does an incoming req see
system.mem_ctrls0.wrQLenPdf::16                  2067                       # What write queue length does an incoming req see
system.mem_ctrls0.wrQLenPdf::17                  3207                       # What write queue length does an incoming req see
system.mem_ctrls0.wrQLenPdf::18                  3211                       # What write queue length does an incoming req see
system.mem_ctrls0.wrQLenPdf::19                  3208                       # What write queue length does an incoming req see
system.mem_ctrls0.wrQLenPdf::20                  3208                       # What write queue length does an incoming req see
system.mem_ctrls0.wrQLenPdf::21                  3208                       # What write queue length does an incoming req see
system.mem_ctrls0.wrQLenPdf::22                  3208                       # What write queue length does an incoming req see
system.mem_ctrls0.wrQLenPdf::23                  3207                       # What write queue length does an incoming req see
system.mem_ctrls0.wrQLenPdf::24                  3207                       # What write queue length does an incoming req see
system.mem_ctrls0.wrQLenPdf::25                  3210                       # What write queue length does an incoming req see
system.mem_ctrls0.wrQLenPdf::26                  3212                       # What write queue length does an incoming req see
system.mem_ctrls0.wrQLenPdf::27                  3207                       # What write queue length does an incoming req see
system.mem_ctrls0.wrQLenPdf::28                  3207                       # What write queue length does an incoming req see
system.mem_ctrls0.wrQLenPdf::29                  3206                       # What write queue length does an incoming req see
system.mem_ctrls0.wrQLenPdf::30                  3206                       # What write queue length does an incoming req see
system.mem_ctrls0.wrQLenPdf::31                  3206                       # What write queue length does an incoming req see
system.mem_ctrls0.wrQLenPdf::32                  3206                       # What write queue length does an incoming req see
system.mem_ctrls0.wrQLenPdf::33                     0                       # What write queue length does an incoming req see
system.mem_ctrls0.wrQLenPdf::34                     0                       # What write queue length does an incoming req see
system.mem_ctrls0.wrQLenPdf::35                     0                       # What write queue length does an incoming req see
system.mem_ctrls0.wrQLenPdf::36                     0                       # What write queue length does an incoming req see
system.mem_ctrls0.wrQLenPdf::37                     0                       # What write queue length does an incoming req see
system.mem_ctrls0.wrQLenPdf::38                     0                       # What write queue length does an incoming req see
system.mem_ctrls0.wrQLenPdf::39                     0                       # What write queue length does an incoming req see
system.mem_ctrls0.wrQLenPdf::40                     0                       # What write queue length does an incoming req see
system.mem_ctrls0.wrQLenPdf::41                     0                       # What write queue length does an incoming req see
system.mem_ctrls0.wrQLenPdf::42                     0                       # What write queue length does an incoming req see
system.mem_ctrls0.wrQLenPdf::43                     0                       # What write queue length does an incoming req see
system.mem_ctrls0.wrQLenPdf::44                     0                       # What write queue length does an incoming req see
system.mem_ctrls0.wrQLenPdf::45                     0                       # What write queue length does an incoming req see
system.mem_ctrls0.wrQLenPdf::46                     0                       # What write queue length does an incoming req see
system.mem_ctrls0.wrQLenPdf::47                     0                       # What write queue length does an incoming req see
system.mem_ctrls0.wrQLenPdf::48                     0                       # What write queue length does an incoming req see
system.mem_ctrls0.wrQLenPdf::49                     0                       # What write queue length does an incoming req see
system.mem_ctrls0.wrQLenPdf::50                     0                       # What write queue length does an incoming req see
system.mem_ctrls0.wrQLenPdf::51                     0                       # What write queue length does an incoming req see
system.mem_ctrls0.wrQLenPdf::52                     0                       # What write queue length does an incoming req see
system.mem_ctrls0.wrQLenPdf::53                     0                       # What write queue length does an incoming req see
system.mem_ctrls0.wrQLenPdf::54                     0                       # What write queue length does an incoming req see
system.mem_ctrls0.wrQLenPdf::55                     0                       # What write queue length does an incoming req see
system.mem_ctrls0.wrQLenPdf::56                     0                       # What write queue length does an incoming req see
system.mem_ctrls0.wrQLenPdf::57                     0                       # What write queue length does an incoming req see
system.mem_ctrls0.wrQLenPdf::58                     0                       # What write queue length does an incoming req see
system.mem_ctrls0.wrQLenPdf::59                     0                       # What write queue length does an incoming req see
system.mem_ctrls0.wrQLenPdf::60                     0                       # What write queue length does an incoming req see
system.mem_ctrls0.wrQLenPdf::61                     0                       # What write queue length does an incoming req see
system.mem_ctrls0.wrQLenPdf::62                     0                       # What write queue length does an incoming req see
system.mem_ctrls0.wrQLenPdf::63                     0                       # What write queue length does an incoming req see
system.mem_ctrls0.bytesPerActivate::samples     34120077                       # Bytes accessed per row activation
system.mem_ctrls0.bytesPerActivate::mean    64.101359                       # Bytes accessed per row activation
system.mem_ctrls0.bytesPerActivate::gmean    64.057566                       # Bytes accessed per row activation
system.mem_ctrls0.bytesPerActivate::stdev     3.918251                       # Bytes accessed per row activation
system.mem_ctrls0.bytesPerActivate::0-127     34084555     99.90%     99.90% # Bytes accessed per row activation
system.mem_ctrls0.bytesPerActivate::128-255        31253      0.09%     99.99% # Bytes accessed per row activation
system.mem_ctrls0.bytesPerActivate::256-383         3239      0.01%    100.00% # Bytes accessed per row activation
system.mem_ctrls0.bytesPerActivate::384-511          742      0.00%    100.00% # Bytes accessed per row activation
system.mem_ctrls0.bytesPerActivate::512-639          188      0.00%    100.00% # Bytes accessed per row activation
system.mem_ctrls0.bytesPerActivate::640-767           55      0.00%    100.00% # Bytes accessed per row activation
system.mem_ctrls0.bytesPerActivate::768-895           23      0.00%    100.00% # Bytes accessed per row activation
system.mem_ctrls0.bytesPerActivate::896-1023           14      0.00%    100.00% # Bytes accessed per row activation
system.mem_ctrls0.bytesPerActivate::1024-1151            8      0.00%    100.00% # Bytes accessed per row activation
system.mem_ctrls0.bytesPerActivate::total     34120077                       # Bytes accessed per row activation
system.mem_ctrls0.rdPerTurnAround::samples         3207                       # Reads before turning the bus around for writes
system.mem_ctrls0.rdPerTurnAround::mean  10598.241659                       # Reads before turning the bus around for writes
system.mem_ctrls0.rdPerTurnAround::gmean   262.255104                       # Reads before turning the bus around for writes
system.mem_ctrls0.rdPerTurnAround::stdev 73198.833944                       # Reads before turning the bus around for writes
system.mem_ctrls0.rdPerTurnAround::0-65535         3116     97.16%     97.16% # Reads before turning the bus around for writes
system.mem_ctrls0.rdPerTurnAround::65536-131071           44      1.37%     98.53% # Reads before turning the bus around for writes
system.mem_ctrls0.rdPerTurnAround::131072-196607           12      0.37%     98.91% # Reads before turning the bus around for writes
system.mem_ctrls0.rdPerTurnAround::196608-262143            7      0.22%     99.13% # Reads before turning the bus around for writes
system.mem_ctrls0.rdPerTurnAround::262144-327679            5      0.16%     99.28% # Reads before turning the bus around for writes
system.mem_ctrls0.rdPerTurnAround::327680-393215            4      0.12%     99.41% # Reads before turning the bus around for writes
system.mem_ctrls0.rdPerTurnAround::393216-458751            2      0.06%     99.47% # Reads before turning the bus around for writes
system.mem_ctrls0.rdPerTurnAround::458752-524287            2      0.06%     99.53% # Reads before turning the bus around for writes
system.mem_ctrls0.rdPerTurnAround::524288-589823            3      0.09%     99.63% # Reads before turning the bus around for writes
system.mem_ctrls0.rdPerTurnAround::589824-655359            3      0.09%     99.72% # Reads before turning the bus around for writes
system.mem_ctrls0.rdPerTurnAround::655360-720895            1      0.03%     99.75% # Reads before turning the bus around for writes
system.mem_ctrls0.rdPerTurnAround::786432-851967            1      0.03%     99.78% # Reads before turning the bus around for writes
system.mem_ctrls0.rdPerTurnAround::851968-917503            2      0.06%     99.84% # Reads before turning the bus around for writes
system.mem_ctrls0.rdPerTurnAround::917504-983039            1      0.03%     99.88% # Reads before turning the bus around for writes
system.mem_ctrls0.rdPerTurnAround::1.11411e+06-1.17965e+06            1      0.03%     99.91% # Reads before turning the bus around for writes
system.mem_ctrls0.rdPerTurnAround::1.31072e+06-1.37626e+06            1      0.03%     99.94% # Reads before turning the bus around for writes
system.mem_ctrls0.rdPerTurnAround::1.6384e+06-1.70394e+06            2      0.06%    100.00% # Reads before turning the bus around for writes
system.mem_ctrls0.rdPerTurnAround::total         3207                       # Reads before turning the bus around for writes
system.mem_ctrls0.wrPerTurnAround::samples         3207                       # Writes before turning the bus around for reads
system.mem_ctrls0.wrPerTurnAround::mean     17.280012                       # Writes before turning the bus around for reads
system.mem_ctrls0.wrPerTurnAround::gmean    17.252530                       # Writes before turning the bus around for reads
system.mem_ctrls0.wrPerTurnAround::stdev     0.965168                       # Writes before turning the bus around for reads
system.mem_ctrls0.wrPerTurnAround::16            1143     35.64%     35.64% # Writes before turning the bus around for reads
system.mem_ctrls0.wrPerTurnAround::17              40      1.25%     36.89% # Writes before turning the bus around for reads
system.mem_ctrls0.wrPerTurnAround::18            2011     62.71%     99.59% # Writes before turning the bus around for reads
system.mem_ctrls0.wrPerTurnAround::19              12      0.37%     99.97% # Writes before turning the bus around for reads
system.mem_ctrls0.wrPerTurnAround::23               1      0.03%    100.00% # Writes before turning the bus around for reads
system.mem_ctrls0.wrPerTurnAround::total         3207                       # Writes before turning the bus around for reads
system.mem_ctrls0.totQLat                993583767965                       # Total ticks spent queuing
system.mem_ctrls0.totMemAccLat           1633309449215                       # Total ticks spent from burst creation until serviced by the DRAM
system.mem_ctrls0.totBusLat              170593515000                       # Total ticks spent in databus transfers
system.mem_ctrls0.avgQLat                    29121.38                       # Average queueing delay per DRAM burst
system.mem_ctrls0.avgBusLat                   5000.00                       # Average bus latency per DRAM burst
system.mem_ctrls0.avgMemAccLat               47871.38                       # Average memory access latency per DRAM burst
system.mem_ctrls0.avgRdBW                      168.27                       # Average DRAM read bandwidth in MiByte/s
system.mem_ctrls0.avgWrBW                        0.27                       # Average achieved write bandwidth in MiByte/s
system.mem_ctrls0.avgRdBWSys                   168.29                       # Average system read bandwidth in MiByte/s
system.mem_ctrls0.avgWrBWSys                     0.27                       # Average system write bandwidth in MiByte/s
system.mem_ctrls0.peakBW                     12800.00                       # Theoretical peak bandwidth in MiByte/s
system.mem_ctrls0.busUtil                        1.32                       # Data bus utilization in percentage
system.mem_ctrls0.busUtilRead                    1.31                       # Data bus utilization in percentage for reads
system.mem_ctrls0.busUtilWrite                   0.00                       # Data bus utilization in percentage for writes
system.mem_ctrls0.avgRdQLen                      1.00                       # Average read queue length when enqueuing
system.mem_ctrls0.avgWrQLen                     24.31                       # Average write queue length when enqueuing
system.mem_ctrls0.readRowHits                   46142                       # Number of row buffer hits during reads
system.mem_ctrls0.writeRowHits                   7895                       # Number of row buffer hits during writes
system.mem_ctrls0.readRowHitRate                 0.14                       # Row buffer hit rate for reads
system.mem_ctrls0.writeRowHitRate               14.24                       # Row buffer hit rate for writes
system.mem_ctrls0.avgGap                    379665.75                       # Average gap between requests
system.mem_ctrls0.pageHitRate                    0.16                       # Row buffer hit rate, read and write combined
system.mem_ctrls0_0.actEnergy            121765974120                       # Energy for activate commands per rank (pJ)
system.mem_ctrls0_0.preEnergy             64720131135                       # Energy for precharge commands per rank (pJ)
system.mem_ctrls0_0.readEnergy           121760940420                       # Energy for read commands per rank (pJ)
system.mem_ctrls0_0.writeEnergy             149109300                       # Energy for write commands per rank (pJ)
system.mem_ctrls0_0.refreshEnergy        1024396517040.000244                       # Energy for refresh commands per rank (pJ)
system.mem_ctrls0_0.actBackEnergy        522254021820                       # Energy for active background per rank (pJ)
system.mem_ctrls0_0.preBackEnergy         22954952640                       # Energy for precharge background per rank (pJ)
system.mem_ctrls0_0.actPowerDownEnergy   5068249956870                       # Energy for active power-down per rank (pJ)
system.mem_ctrls0_0.prePowerDownEnergy   252188398080                       # Energy for precharge power-down per rank (pJ)
system.mem_ctrls0_0.selfRefreshEnergy       110992200                       # Energy for self refresh per rank (pJ)
system.mem_ctrls0_0.totalEnergy          7198551383565                       # Total energy per rank (pJ)
system.mem_ctrls0_0.averagePower           554.730976                       # Core power per rank (mW)
system.mem_ctrls0_0.totalIdleTime        11771493082382                       # Total Idle time Per DRAM Rank
system.mem_ctrls0_0.memoryStateTime::IDLE   9809178287                       # Time in different power states
system.mem_ctrls0_0.memoryStateTime::REF 433332442000                       # Time in different power states
system.mem_ctrls0_0.memoryStateTime::SREF    255831268                       # Time in different power states
system.mem_ctrls0_0.memoryStateTime::PRE_PDN 657327400877                       # Time in different power states
system.mem_ctrls0_0.memoryStateTime::ACT 762017749352                       # Time in different power states
system.mem_ctrls0_0.memoryStateTime::ACT_PDN 11113910391823                       # Time in different power states
system.mem_ctrls0_1.actEnergy            121851418500                       # Energy for activate commands per rank (pJ)
system.mem_ctrls0_1.preEnergy             64765561080                       # Energy for precharge commands per rank (pJ)
system.mem_ctrls0_1.readEnergy           121846599000                       # Energy for read commands per rank (pJ)
system.mem_ctrls0_1.writeEnergy             140167440                       # Energy for write commands per rank (pJ)
system.mem_ctrls0_1.refreshEnergy        1024402048800.000244                       # Energy for refresh commands per rank (pJ)
system.mem_ctrls0_1.actBackEnergy        522551808630                       # Energy for active background per rank (pJ)
system.mem_ctrls0_1.preBackEnergy         22985191200                       # Energy for precharge background per rank (pJ)
system.mem_ctrls0_1.actPowerDownEnergy   5071630870260                       # Energy for active power-down per rank (pJ)
system.mem_ctrls0_1.prePowerDownEnergy   249038803200                       # Energy for precharge power-down per rank (pJ)
system.mem_ctrls0_1.selfRefreshEnergy       133878990                       # Energy for self refresh per rank (pJ)
system.mem_ctrls0_1.totalEnergy          7199347179660                       # Total energy per rank (pJ)
system.mem_ctrls0_1.averagePower           554.792301                       # Core power per rank (mW)
system.mem_ctrls0_1.totalIdleTime        11770866898384                       # Total Idle time Per DRAM Rank
system.mem_ctrls0_1.memoryStateTime::IDLE   9846198341                       # Time in different power states
system.mem_ctrls0_1.memoryStateTime::REF 433334854000                       # Time in different power states
system.mem_ctrls0_1.memoryStateTime::SREF    310870546                       # Time in different power states
system.mem_ctrls0_1.memoryStateTime::PRE_PDN 649027499798                       # Time in different power states
system.mem_ctrls0_1.memoryStateTime::ACT 762604000321                       # Time in different power states
system.mem_ctrls0_1.memoryStateTime::ACT_PDN 11121529570601                       # Time in different power states
system.mem_ctrls1.pwrStateResidencyTicks::UNDEFINED 175058836156107                       # Cumulative time (in ticks) in various power states
system.mem_ctrls1.bytes_read::cpu.inst            128                       # Number of bytes read from this memory
system.mem_ctrls1.bytes_read::cpu.data             64                       # Number of bytes read from this memory
system.mem_ctrls1.bytes_read::switch_cpus.inst         1088                       # Number of bytes read from this memory
system.mem_ctrls1.bytes_read::switch_cpus.data   1820813824                       # Number of bytes read from this memory
system.mem_ctrls1.bytes_read::switch_cpus_1.inst          320                       # Number of bytes read from this memory
system.mem_ctrls1.bytes_read::switch_cpus_1.data    363626048                       # Number of bytes read from this memory
system.mem_ctrls1.bytes_read::total        2184441472                       # Number of bytes read from this memory
system.mem_ctrls1.bytes_inst_read::cpu.inst          128                       # Number of instructions bytes read from this memory
system.mem_ctrls1.bytes_inst_read::switch_cpus.inst         1088                       # Number of instructions bytes read from this memory
system.mem_ctrls1.bytes_inst_read::switch_cpus_1.inst          320                       # Number of instructions bytes read from this memory
system.mem_ctrls1.bytes_inst_read::total         1536                       # Number of instructions bytes read from this memory
system.mem_ctrls1.bytes_written::writebacks      3576704                       # Number of bytes written to this memory
system.mem_ctrls1.bytes_written::total        3576704                       # Number of bytes written to this memory
system.mem_ctrls1.num_reads::cpu.inst               2                       # Number of read requests responded to by this memory
system.mem_ctrls1.num_reads::cpu.data               1                       # Number of read requests responded to by this memory
system.mem_ctrls1.num_reads::switch_cpus.inst           17                       # Number of read requests responded to by this memory
system.mem_ctrls1.num_reads::switch_cpus.data     28450216                       # Number of read requests responded to by this memory
system.mem_ctrls1.num_reads::switch_cpus_1.inst            5                       # Number of read requests responded to by this memory
system.mem_ctrls1.num_reads::switch_cpus_1.data      5681657                       # Number of read requests responded to by this memory
system.mem_ctrls1.num_reads::total           34131898                       # Number of read requests responded to by this memory
system.mem_ctrls1.num_writes::writebacks        55886                       # Number of write requests responded to by this memory
system.mem_ctrls1.num_writes::total             55886                       # Number of write requests responded to by this memory
system.mem_ctrls1.bw_read::cpu.inst                10                       # Total read bandwidth from this memory (bytes/s)
system.mem_ctrls1.bw_read::cpu.data                 5                       # Total read bandwidth from this memory (bytes/s)
system.mem_ctrls1.bw_read::switch_cpus.inst           84                       # Total read bandwidth from this memory (bytes/s)
system.mem_ctrls1.bw_read::switch_cpus.data    140314596                       # Total read bandwidth from this memory (bytes/s)
system.mem_ctrls1.bw_read::switch_cpus_1.inst           25                       # Total read bandwidth from this memory (bytes/s)
system.mem_ctrls1.bw_read::switch_cpus_1.data     28021559                       # Total read bandwidth from this memory (bytes/s)
system.mem_ctrls1.bw_read::total            168336278                       # Total read bandwidth from this memory (bytes/s)
system.mem_ctrls1.bw_inst_read::cpu.inst           10                       # Instruction read bandwidth from this memory (bytes/s)
system.mem_ctrls1.bw_inst_read::switch_cpus.inst           84                       # Instruction read bandwidth from this memory (bytes/s)
system.mem_ctrls1.bw_inst_read::switch_cpus_1.inst           25                       # Instruction read bandwidth from this memory (bytes/s)
system.mem_ctrls1.bw_inst_read::total             118                       # Instruction read bandwidth from this memory (bytes/s)
system.mem_ctrls1.bw_write::writebacks         275626                       # Write bandwidth from this memory (bytes/s)
system.mem_ctrls1.bw_write::total              275626                       # Write bandwidth from this memory (bytes/s)
system.mem_ctrls1.bw_total::writebacks         275626                       # Total bandwidth to/from this memory (bytes/s)
system.mem_ctrls1.bw_total::cpu.inst               10                       # Total bandwidth to/from this memory (bytes/s)
system.mem_ctrls1.bw_total::cpu.data                5                       # Total bandwidth to/from this memory (bytes/s)
system.mem_ctrls1.bw_total::switch_cpus.inst           84                       # Total bandwidth to/from this memory (bytes/s)
system.mem_ctrls1.bw_total::switch_cpus.data    140314596                       # Total bandwidth to/from this memory (bytes/s)
system.mem_ctrls1.bw_total::switch_cpus_1.inst           25                       # Total bandwidth to/from this memory (bytes/s)
system.mem_ctrls1.bw_total::switch_cpus_1.data     28021559                       # Total bandwidth to/from this memory (bytes/s)
system.mem_ctrls1.bw_total::total           168611905                       # Total bandwidth to/from this memory (bytes/s)
system.mem_ctrls1.readReqs                   34131898                       # Number of read requests accepted
system.mem_ctrls1.writeReqs                     55886                       # Number of write requests accepted
system.mem_ctrls1.readBursts                 34131898                       # Number of DRAM read bursts, including those serviced by the write queue
system.mem_ctrls1.writeBursts                   55886                       # Number of DRAM write bursts, including those merged in the write queue
system.mem_ctrls1.bytesReadDRAM            2184132800                       # Total number of bytes read from DRAM
system.mem_ctrls1.bytesReadWrQ                 308672                       # Total number of bytes read from write queue
system.mem_ctrls1.bytesWritten                3560000                       # Total number of bytes written to DRAM
system.mem_ctrls1.bytesReadSys             2184441472                       # Total read bytes from the system interface side
system.mem_ctrls1.bytesWrittenSys             3576704                       # Total written bytes from the system interface side
system.mem_ctrls1.servicedByWrQ                  4823                       # Number of DRAM read bursts serviced by the write queue
system.mem_ctrls1.mergedWrBursts                  235                       # Number of DRAM write bursts merged with an existing one
system.mem_ctrls1.neitherReadNorWriteReqs            0                       # Number of requests that are neither read nor write
system.mem_ctrls1.perBankRdBursts::0          2131046                       # Per bank write bursts
system.mem_ctrls1.perBankRdBursts::1          2130249                       # Per bank write bursts
system.mem_ctrls1.perBankRdBursts::2          2138167                       # Per bank write bursts
system.mem_ctrls1.perBankRdBursts::3          2135460                       # Per bank write bursts
system.mem_ctrls1.perBankRdBursts::4          2133994                       # Per bank write bursts
system.mem_ctrls1.perBankRdBursts::5          2133474                       # Per bank write bursts
system.mem_ctrls1.perBankRdBursts::6          2137377                       # Per bank write bursts
system.mem_ctrls1.perBankRdBursts::7          2133809                       # Per bank write bursts
system.mem_ctrls1.perBankRdBursts::8          2142108                       # Per bank write bursts
system.mem_ctrls1.perBankRdBursts::9          2132950                       # Per bank write bursts
system.mem_ctrls1.perBankRdBursts::10         2139649                       # Per bank write bursts
system.mem_ctrls1.perBankRdBursts::11         2128414                       # Per bank write bursts
system.mem_ctrls1.perBankRdBursts::12         2128440                       # Per bank write bursts
system.mem_ctrls1.perBankRdBursts::13         2130228                       # Per bank write bursts
system.mem_ctrls1.perBankRdBursts::14         2130793                       # Per bank write bursts
system.mem_ctrls1.perBankRdBursts::15         2120917                       # Per bank write bursts
system.mem_ctrls1.perBankWrBursts::0             3285                       # Per bank write bursts
system.mem_ctrls1.perBankWrBursts::1             3268                       # Per bank write bursts
system.mem_ctrls1.perBankWrBursts::2             3230                       # Per bank write bursts
system.mem_ctrls1.perBankWrBursts::3             4267                       # Per bank write bursts
system.mem_ctrls1.perBankWrBursts::4             4411                       # Per bank write bursts
system.mem_ctrls1.perBankWrBursts::5             3311                       # Per bank write bursts
system.mem_ctrls1.perBankWrBursts::6             3345                       # Per bank write bursts
system.mem_ctrls1.perBankWrBursts::7             3444                       # Per bank write bursts
system.mem_ctrls1.perBankWrBursts::8             3483                       # Per bank write bursts
system.mem_ctrls1.perBankWrBursts::9             3354                       # Per bank write bursts
system.mem_ctrls1.perBankWrBursts::10            3374                       # Per bank write bursts
system.mem_ctrls1.perBankWrBursts::11            3394                       # Per bank write bursts
system.mem_ctrls1.perBankWrBursts::12            3388                       # Per bank write bursts
system.mem_ctrls1.perBankWrBursts::13            3389                       # Per bank write bursts
system.mem_ctrls1.perBankWrBursts::14            3332                       # Per bank write bursts
system.mem_ctrls1.perBankWrBursts::15            3350                       # Per bank write bursts
system.mem_ctrls1.numRdRetry                        0                       # Number of times read queue was full causing retry
system.mem_ctrls1.numWrRetry                        0                       # Number of times write queue was full causing retry
system.mem_ctrls1.totGap                 12976652824533                       # Total gap between requests
system.mem_ctrls1.readPktSize::0                    0                       # Read request sizes (log2)
system.mem_ctrls1.readPktSize::1                    0                       # Read request sizes (log2)
system.mem_ctrls1.readPktSize::2                    0                       # Read request sizes (log2)
system.mem_ctrls1.readPktSize::3                    0                       # Read request sizes (log2)
system.mem_ctrls1.readPktSize::4                    0                       # Read request sizes (log2)
system.mem_ctrls1.readPktSize::5                    0                       # Read request sizes (log2)
system.mem_ctrls1.readPktSize::6             34131898                       # Read request sizes (log2)
system.mem_ctrls1.writePktSize::0                   0                       # Write request sizes (log2)
system.mem_ctrls1.writePktSize::1                   0                       # Write request sizes (log2)
system.mem_ctrls1.writePktSize::2                   0                       # Write request sizes (log2)
system.mem_ctrls1.writePktSize::3                   0                       # Write request sizes (log2)
system.mem_ctrls1.writePktSize::4                   0                       # Write request sizes (log2)
system.mem_ctrls1.writePktSize::5                   0                       # Write request sizes (log2)
system.mem_ctrls1.writePktSize::6               55886                       # Write request sizes (log2)
system.mem_ctrls1.rdQLenPdf::0               34126475                       # What read queue length does an incoming req see
system.mem_ctrls1.rdQLenPdf::1                    567                       # What read queue length does an incoming req see
system.mem_ctrls1.rdQLenPdf::2                     31                       # What read queue length does an incoming req see
system.mem_ctrls1.rdQLenPdf::3                      2                       # What read queue length does an incoming req see
system.mem_ctrls1.rdQLenPdf::4                      0                       # What read queue length does an incoming req see
system.mem_ctrls1.rdQLenPdf::5                      0                       # What read queue length does an incoming req see
system.mem_ctrls1.rdQLenPdf::6                      0                       # What read queue length does an incoming req see
system.mem_ctrls1.rdQLenPdf::7                      0                       # What read queue length does an incoming req see
system.mem_ctrls1.rdQLenPdf::8                      0                       # What read queue length does an incoming req see
system.mem_ctrls1.rdQLenPdf::9                      0                       # What read queue length does an incoming req see
system.mem_ctrls1.rdQLenPdf::10                     0                       # What read queue length does an incoming req see
system.mem_ctrls1.rdQLenPdf::11                     0                       # What read queue length does an incoming req see
system.mem_ctrls1.rdQLenPdf::12                     0                       # What read queue length does an incoming req see
system.mem_ctrls1.rdQLenPdf::13                     0                       # What read queue length does an incoming req see
system.mem_ctrls1.rdQLenPdf::14                     0                       # What read queue length does an incoming req see
system.mem_ctrls1.rdQLenPdf::15                     0                       # What read queue length does an incoming req see
system.mem_ctrls1.rdQLenPdf::16                     0                       # What read queue length does an incoming req see
system.mem_ctrls1.rdQLenPdf::17                     0                       # What read queue length does an incoming req see
system.mem_ctrls1.rdQLenPdf::18                     0                       # What read queue length does an incoming req see
system.mem_ctrls1.rdQLenPdf::19                     0                       # What read queue length does an incoming req see
system.mem_ctrls1.rdQLenPdf::20                     0                       # What read queue length does an incoming req see
system.mem_ctrls1.rdQLenPdf::21                     0                       # What read queue length does an incoming req see
system.mem_ctrls1.rdQLenPdf::22                     0                       # What read queue length does an incoming req see
system.mem_ctrls1.rdQLenPdf::23                     0                       # What read queue length does an incoming req see
system.mem_ctrls1.rdQLenPdf::24                     0                       # What read queue length does an incoming req see
system.mem_ctrls1.rdQLenPdf::25                     0                       # What read queue length does an incoming req see
system.mem_ctrls1.rdQLenPdf::26                     0                       # What read queue length does an incoming req see
system.mem_ctrls1.rdQLenPdf::27                     0                       # What read queue length does an incoming req see
system.mem_ctrls1.rdQLenPdf::28                     0                       # What read queue length does an incoming req see
system.mem_ctrls1.rdQLenPdf::29                     0                       # What read queue length does an incoming req see
system.mem_ctrls1.rdQLenPdf::30                     0                       # What read queue length does an incoming req see
system.mem_ctrls1.rdQLenPdf::31                     0                       # What read queue length does an incoming req see
system.mem_ctrls1.wrQLenPdf::0                      2                       # What write queue length does an incoming req see
system.mem_ctrls1.wrQLenPdf::1                      2                       # What write queue length does an incoming req see
system.mem_ctrls1.wrQLenPdf::2                      2                       # What write queue length does an incoming req see
system.mem_ctrls1.wrQLenPdf::3                      2                       # What write queue length does an incoming req see
system.mem_ctrls1.wrQLenPdf::4                      2                       # What write queue length does an incoming req see
system.mem_ctrls1.wrQLenPdf::5                      2                       # What write queue length does an incoming req see
system.mem_ctrls1.wrQLenPdf::6                      2                       # What write queue length does an incoming req see
system.mem_ctrls1.wrQLenPdf::7                      2                       # What write queue length does an incoming req see
system.mem_ctrls1.wrQLenPdf::8                      2                       # What write queue length does an incoming req see
system.mem_ctrls1.wrQLenPdf::9                      2                       # What write queue length does an incoming req see
system.mem_ctrls1.wrQLenPdf::10                     2                       # What write queue length does an incoming req see
system.mem_ctrls1.wrQLenPdf::11                     2                       # What write queue length does an incoming req see
system.mem_ctrls1.wrQLenPdf::12                     2                       # What write queue length does an incoming req see
system.mem_ctrls1.wrQLenPdf::13                     2                       # What write queue length does an incoming req see
system.mem_ctrls1.wrQLenPdf::14                     2                       # What write queue length does an incoming req see
system.mem_ctrls1.wrQLenPdf::15                  2111                       # What write queue length does an incoming req see
system.mem_ctrls1.wrQLenPdf::16                  2156                       # What write queue length does an incoming req see
system.mem_ctrls1.wrQLenPdf::17                  3206                       # What write queue length does an incoming req see
system.mem_ctrls1.wrQLenPdf::18                  3213                       # What write queue length does an incoming req see
system.mem_ctrls1.wrQLenPdf::19                  3211                       # What write queue length does an incoming req see
system.mem_ctrls1.wrQLenPdf::20                  3210                       # What write queue length does an incoming req see
system.mem_ctrls1.wrQLenPdf::21                  3210                       # What write queue length does an incoming req see
system.mem_ctrls1.wrQLenPdf::22                  3209                       # What write queue length does an incoming req see
system.mem_ctrls1.wrQLenPdf::23                  3209                       # What write queue length does an incoming req see
system.mem_ctrls1.wrQLenPdf::24                  3209                       # What write queue length does an incoming req see
system.mem_ctrls1.wrQLenPdf::25                  3215                       # What write queue length does an incoming req see
system.mem_ctrls1.wrQLenPdf::26                  3214                       # What write queue length does an incoming req see
system.mem_ctrls1.wrQLenPdf::27                  3208                       # What write queue length does an incoming req see
system.mem_ctrls1.wrQLenPdf::28                  3208                       # What write queue length does an incoming req see
system.mem_ctrls1.wrQLenPdf::29                  3208                       # What write queue length does an incoming req see
system.mem_ctrls1.wrQLenPdf::30                  3208                       # What write queue length does an incoming req see
system.mem_ctrls1.wrQLenPdf::31                  3208                       # What write queue length does an incoming req see
system.mem_ctrls1.wrQLenPdf::32                  3208                       # What write queue length does an incoming req see
system.mem_ctrls1.wrQLenPdf::33                     0                       # What write queue length does an incoming req see
system.mem_ctrls1.wrQLenPdf::34                     0                       # What write queue length does an incoming req see
system.mem_ctrls1.wrQLenPdf::35                     0                       # What write queue length does an incoming req see
system.mem_ctrls1.wrQLenPdf::36                     0                       # What write queue length does an incoming req see
system.mem_ctrls1.wrQLenPdf::37                     0                       # What write queue length does an incoming req see
system.mem_ctrls1.wrQLenPdf::38                     0                       # What write queue length does an incoming req see
system.mem_ctrls1.wrQLenPdf::39                     0                       # What write queue length does an incoming req see
system.mem_ctrls1.wrQLenPdf::40                     0                       # What write queue length does an incoming req see
system.mem_ctrls1.wrQLenPdf::41                     0                       # What write queue length does an incoming req see
system.mem_ctrls1.wrQLenPdf::42                     0                       # What write queue length does an incoming req see
system.mem_ctrls1.wrQLenPdf::43                     0                       # What write queue length does an incoming req see
system.mem_ctrls1.wrQLenPdf::44                     0                       # What write queue length does an incoming req see
system.mem_ctrls1.wrQLenPdf::45                     0                       # What write queue length does an incoming req see
system.mem_ctrls1.wrQLenPdf::46                     0                       # What write queue length does an incoming req see
system.mem_ctrls1.wrQLenPdf::47                     0                       # What write queue length does an incoming req see
system.mem_ctrls1.wrQLenPdf::48                     0                       # What write queue length does an incoming req see
system.mem_ctrls1.wrQLenPdf::49                     0                       # What write queue length does an incoming req see
system.mem_ctrls1.wrQLenPdf::50                     0                       # What write queue length does an incoming req see
system.mem_ctrls1.wrQLenPdf::51                     0                       # What write queue length does an incoming req see
system.mem_ctrls1.wrQLenPdf::52                     0                       # What write queue length does an incoming req see
system.mem_ctrls1.wrQLenPdf::53                     0                       # What write queue length does an incoming req see
system.mem_ctrls1.wrQLenPdf::54                     0                       # What write queue length does an incoming req see
system.mem_ctrls1.wrQLenPdf::55                     0                       # What write queue length does an incoming req see
system.mem_ctrls1.wrQLenPdf::56                     0                       # What write queue length does an incoming req see
system.mem_ctrls1.wrQLenPdf::57                     0                       # What write queue length does an incoming req see
system.mem_ctrls1.wrQLenPdf::58                     0                       # What write queue length does an incoming req see
system.mem_ctrls1.wrQLenPdf::59                     0                       # What write queue length does an incoming req see
system.mem_ctrls1.wrQLenPdf::60                     0                       # What write queue length does an incoming req see
system.mem_ctrls1.wrQLenPdf::61                     0                       # What write queue length does an incoming req see
system.mem_ctrls1.wrQLenPdf::62                     0                       # What write queue length does an incoming req see
system.mem_ctrls1.wrQLenPdf::63                     0                       # What write queue length does an incoming req see
system.mem_ctrls1.bytesPerActivate::samples     34128465                       # Bytes accessed per row activation
system.mem_ctrls1.bytesPerActivate::mean    64.101698                       # Bytes accessed per row activation
system.mem_ctrls1.bytesPerActivate::gmean    64.057594                       # Bytes accessed per row activation
system.mem_ctrls1.bytesPerActivate::stdev     3.936891                       # Bytes accessed per row activation
system.mem_ctrls1.bytesPerActivate::0-127     34093004     99.90%     99.90% # Bytes accessed per row activation
system.mem_ctrls1.bytesPerActivate::128-255        31130      0.09%     99.99% # Bytes accessed per row activation
system.mem_ctrls1.bytesPerActivate::256-383         3254      0.01%    100.00% # Bytes accessed per row activation
system.mem_ctrls1.bytesPerActivate::384-511          747      0.00%    100.00% # Bytes accessed per row activation
system.mem_ctrls1.bytesPerActivate::512-639          225      0.00%    100.00% # Bytes accessed per row activation
system.mem_ctrls1.bytesPerActivate::640-767           70      0.00%    100.00% # Bytes accessed per row activation
system.mem_ctrls1.bytesPerActivate::768-895           25      0.00%    100.00% # Bytes accessed per row activation
system.mem_ctrls1.bytesPerActivate::896-1023            6      0.00%    100.00% # Bytes accessed per row activation
system.mem_ctrls1.bytesPerActivate::1024-1151            4      0.00%    100.00% # Bytes accessed per row activation
system.mem_ctrls1.bytesPerActivate::total     34128465                       # Bytes accessed per row activation
system.mem_ctrls1.rdPerTurnAround::samples         3209                       # Reads before turning the bus around for writes
system.mem_ctrls1.rdPerTurnAround::mean  10615.375506                       # Reads before turning the bus around for writes
system.mem_ctrls1.rdPerTurnAround::gmean   268.032066                       # Reads before turning the bus around for writes
system.mem_ctrls1.rdPerTurnAround::stdev 71665.984028                       # Reads before turning the bus around for writes
system.mem_ctrls1.rdPerTurnAround::0-65535         3120     97.23%     97.23% # Reads before turning the bus around for writes
system.mem_ctrls1.rdPerTurnAround::65536-131071           44      1.37%     98.60% # Reads before turning the bus around for writes
system.mem_ctrls1.rdPerTurnAround::131072-196607           12      0.37%     98.97% # Reads before turning the bus around for writes
system.mem_ctrls1.rdPerTurnAround::196608-262143            5      0.16%     99.13% # Reads before turning the bus around for writes
system.mem_ctrls1.rdPerTurnAround::262144-327679            3      0.09%     99.22% # Reads before turning the bus around for writes
system.mem_ctrls1.rdPerTurnAround::327680-393215            6      0.19%     99.41% # Reads before turning the bus around for writes
system.mem_ctrls1.rdPerTurnAround::393216-458751            3      0.09%     99.50% # Reads before turning the bus around for writes
system.mem_ctrls1.rdPerTurnAround::458752-524287            3      0.09%     99.59% # Reads before turning the bus around for writes
system.mem_ctrls1.rdPerTurnAround::524288-589823            1      0.03%     99.63% # Reads before turning the bus around for writes
system.mem_ctrls1.rdPerTurnAround::589824-655359            2      0.06%     99.69% # Reads before turning the bus around for writes
system.mem_ctrls1.rdPerTurnAround::655360-720895            1      0.03%     99.72% # Reads before turning the bus around for writes
system.mem_ctrls1.rdPerTurnAround::786432-851967            1      0.03%     99.75% # Reads before turning the bus around for writes
system.mem_ctrls1.rdPerTurnAround::917504-983039            2      0.06%     99.81% # Reads before turning the bus around for writes
system.mem_ctrls1.rdPerTurnAround::1.04858e+06-1.11411e+06            1      0.03%     99.84% # Reads before turning the bus around for writes
system.mem_ctrls1.rdPerTurnAround::1.11411e+06-1.17965e+06            1      0.03%     99.88% # Reads before turning the bus around for writes
system.mem_ctrls1.rdPerTurnAround::1.24518e+06-1.31072e+06            2      0.06%     99.94% # Reads before turning the bus around for writes
system.mem_ctrls1.rdPerTurnAround::1.31072e+06-1.37626e+06            1      0.03%     99.97% # Reads before turning the bus around for writes
system.mem_ctrls1.rdPerTurnAround::1.37626e+06-1.44179e+06            1      0.03%    100.00% # Reads before turning the bus around for writes
system.mem_ctrls1.rdPerTurnAround::total         3209                       # Reads before turning the bus around for writes
system.mem_ctrls1.wrPerTurnAround::samples         3209                       # Writes before turning the bus around for reads
system.mem_ctrls1.wrPerTurnAround::mean     17.334060                       # Writes before turning the bus around for reads
system.mem_ctrls1.wrPerTurnAround::gmean    17.307670                       # Writes before turning the bus around for reads
system.mem_ctrls1.wrPerTurnAround::stdev     0.944515                       # Writes before turning the bus around for reads
system.mem_ctrls1.wrPerTurnAround::16            1056     32.91%     32.91% # Writes before turning the bus around for reads
system.mem_ctrls1.wrPerTurnAround::17              43      1.34%     34.25% # Writes before turning the bus around for reads
system.mem_ctrls1.wrPerTurnAround::18            2092     65.19%     99.44% # Writes before turning the bus around for reads
system.mem_ctrls1.wrPerTurnAround::19              18      0.56%    100.00% # Writes before turning the bus around for reads
system.mem_ctrls1.wrPerTurnAround::total         3209                       # Writes before turning the bus around for reads
system.mem_ctrls1.totQLat                989179017060                       # Total ticks spent queuing
system.mem_ctrls1.totMemAccLat           1629061673310                       # Total ticks spent from burst creation until serviced by the DRAM
system.mem_ctrls1.totBusLat              170635375000                       # Total ticks spent in databus transfers
system.mem_ctrls1.avgQLat                    28985.17                       # Average queueing delay per DRAM burst
system.mem_ctrls1.avgBusLat                   5000.00                       # Average bus latency per DRAM burst
system.mem_ctrls1.avgMemAccLat               47735.17                       # Average memory access latency per DRAM burst
system.mem_ctrls1.avgRdBW                      168.31                       # Average DRAM read bandwidth in MiByte/s
system.mem_ctrls1.avgWrBW                        0.27                       # Average achieved write bandwidth in MiByte/s
system.mem_ctrls1.avgRdBWSys                   168.34                       # Average system read bandwidth in MiByte/s
system.mem_ctrls1.avgWrBWSys                     0.28                       # Average system write bandwidth in MiByte/s
system.mem_ctrls1.peakBW                     12800.00                       # Theoretical peak bandwidth in MiByte/s
system.mem_ctrls1.busUtil                        1.32                       # Data bus utilization in percentage
system.mem_ctrls1.busUtilRead                    1.31                       # Data bus utilization in percentage for reads
system.mem_ctrls1.busUtilWrite                   0.00                       # Data bus utilization in percentage for writes
system.mem_ctrls1.avgRdQLen                      1.00                       # Average read queue length when enqueuing
system.mem_ctrls1.avgWrQLen                     24.28                       # Average write queue length when enqueuing
system.mem_ctrls1.readRowHits                   46373                       # Number of row buffer hits during reads
system.mem_ctrls1.writeRowHits                   7858                       # Number of row buffer hits during writes
system.mem_ctrls1.readRowHitRate                 0.14                       # Row buffer hit rate for reads
system.mem_ctrls1.writeRowHitRate               14.12                       # Row buffer hit rate for writes
system.mem_ctrls1.avgGap                    379569.87                       # Average gap between requests
system.mem_ctrls1.pageHitRate                    0.16                       # Row buffer hit rate, read and write combined
system.mem_ctrls1_0.actEnergy            121911480180                       # Energy for activate commands per rank (pJ)
system.mem_ctrls1_0.preEnergy             64797480825                       # Energy for precharge commands per rank (pJ)
system.mem_ctrls1_0.readEnergy           121905332640                       # Energy for read commands per rank (pJ)
system.mem_ctrls1_0.writeEnergy             149088420                       # Energy for write commands per rank (pJ)
system.mem_ctrls1_0.refreshEnergy        1024394673120.000244                       # Energy for refresh commands per rank (pJ)
system.mem_ctrls1_0.actBackEnergy        522743607930                       # Energy for active background per rank (pJ)
system.mem_ctrls1_0.preBackEnergy         23224524000                       # Energy for precharge background per rank (pJ)
system.mem_ctrls1_0.actPowerDownEnergy   5058310350450                       # Energy for active power-down per rank (pJ)
system.mem_ctrls1_0.prePowerDownEnergy   259845787680                       # Energy for precharge power-down per rank (pJ)
system.mem_ctrls1_0.selfRefreshEnergy       134666805                       # Energy for self refresh per rank (pJ)
system.mem_ctrls1_0.totalEnergy          7197417446190                       # Total energy per rank (pJ)
system.mem_ctrls1_0.averagePower           554.643593                       # Core power per rank (mW)
system.mem_ctrls1_0.totalIdleTime        11770269807521                       # Total Idle time Per DRAM Rank
system.mem_ctrls1_0.memoryStateTime::IDLE   9873004538                       # Time in different power states
system.mem_ctrls1_0.memoryStateTime::REF 433331698000                       # Time in different power states
system.mem_ctrls1_0.memoryStateTime::SREF    336296401                       # Time in different power states
system.mem_ctrls1_0.memoryStateTime::PRE_PDN 676646753965                       # Time in different power states
system.mem_ctrls1_0.memoryStateTime::ACT 763176854051                       # Time in different power states
system.mem_ctrls1_0.memoryStateTime::ACT_PDN 11093288386652                       # Time in different power states
system.mem_ctrls1_1.actEnergy            121765788480                       # Energy for activate commands per rank (pJ)
system.mem_ctrls1_1.preEnergy             64720043850                       # Energy for precharge commands per rank (pJ)
system.mem_ctrls1_1.readEnergy           121761982860                       # Energy for read commands per rank (pJ)
system.mem_ctrls1_1.writeEnergy             141274080                       # Energy for write commands per rank (pJ)
system.mem_ctrls1_1.refreshEnergy        1024393443840.000244                       # Energy for refresh commands per rank (pJ)
system.mem_ctrls1_1.actBackEnergy        521499024330                       # Energy for active background per rank (pJ)
system.mem_ctrls1_1.preBackEnergy         23153161920                       # Energy for precharge background per rank (pJ)
system.mem_ctrls1_1.actPowerDownEnergy   5055730470600                       # Energy for active power-down per rank (pJ)
system.mem_ctrls1_1.prePowerDownEnergy   263136660960                       # Energy for precharge power-down per rank (pJ)
system.mem_ctrls1_1.selfRefreshEnergy       134301735                       # Energy for self refresh per rank (pJ)
system.mem_ctrls1_1.totalEnergy          7196436560685                       # Total energy per rank (pJ)
system.mem_ctrls1_1.averagePower           554.568005                       # Core power per rank (mW)
system.mem_ctrls1_1.totalIdleTime        11771388940456                       # Total Idle time Per DRAM Rank
system.mem_ctrls1_1.memoryStateTime::IDLE   9920422496                       # Time in different power states
system.mem_ctrls1_1.memoryStateTime::REF 433331196000                       # Time in different power states
system.mem_ctrls1_1.memoryStateTime::SREF    339226499                       # Time in different power states
system.mem_ctrls1_1.memoryStateTime::PRE_PDN 684605310593                       # Time in different power states
system.mem_ctrls1_1.memoryStateTime::ACT 762012318976                       # Time in different power states
system.mem_ctrls1_1.memoryStateTime::ACT_PDN 11086444519043                       # Time in different power states
system.pwrStateResidencyTicks::UNDEFINED 175058836156107                       # Cumulative time (in ticks) in various power states
system.cpu.branchPred.lookups                      15                       # Number of BP lookups
system.cpu.branchPred.condPredicted                15                       # Number of conditional branches predicted
system.cpu.branchPred.condIncorrect                 4                       # Number of conditional branches incorrect
system.cpu.branchPred.BTBLookups                    0                       # Number of BTB lookups
system.cpu.branchPred.BTBHits                       0                       # Number of BTB hits
system.cpu.branchPred.BTBCorrect                    0                       # Number of correct BTB predictions (this stat may not work properly.
system.cpu.branchPred.BTBHitPct                   nan                       # BTB Hit Percentage
system.cpu.branchPred.usedRAS                       0                       # Number of times the RAS was used to get a target.
system.cpu.branchPred.RASInCorrect                  0                       # Number of incorrect RAS predictions.
system.cpu.branchPred.indirectLookups               0                       # Number of indirect predictor lookups.
system.cpu.branchPred.indirectHits                  0                       # Number of indirect target hits.
system.cpu.branchPred.indirectMisses                0                       # Number of indirect misses.
system.cpu.branchPredindirectMispredicted            0                       # Number of mispredicted indirect branches.
system.cpu_voltage_domain.voltage                   1                       # Voltage in Volts
system.cpu_clk_domain.clock                       333                       # Clock period in ticks
system.cpu.dtb.fetch_hits                           0                       # ITB hits
system.cpu.dtb.fetch_misses                         0                       # ITB misses
system.cpu.dtb.fetch_acv                            0                       # ITB acv
system.cpu.dtb.fetch_accesses                       0                       # ITB accesses
system.cpu.dtb.read_hits                            1                       # DTB read hits
system.cpu.dtb.read_misses                         15                       # DTB read misses
system.cpu.dtb.read_acv                             0                       # DTB read access violations
system.cpu.dtb.read_accesses                       16                       # DTB read accesses
system.cpu.dtb.write_hits                           0                       # DTB write hits
system.cpu.dtb.write_misses                         0                       # DTB write misses
system.cpu.dtb.write_acv                            0                       # DTB write access violations
system.cpu.dtb.write_accesses                       0                       # DTB write accesses
system.cpu.dtb.data_hits                            1                       # DTB hits
system.cpu.dtb.data_misses                         15                       # DTB misses
system.cpu.dtb.data_acv                             0                       # DTB access violations
system.cpu.dtb.data_accesses                       16                       # DTB accesses
system.cpu.itb.fetch_hits                          14                       # ITB hits
system.cpu.itb.fetch_misses                         0                       # ITB misses
system.cpu.itb.fetch_acv                            0                       # ITB acv
system.cpu.itb.fetch_accesses                      14                       # ITB accesses
system.cpu.itb.read_hits                            0                       # DTB read hits
system.cpu.itb.read_misses                          0                       # DTB read misses
system.cpu.itb.read_acv                             0                       # DTB read access violations
system.cpu.itb.read_accesses                        0                       # DTB read accesses
system.cpu.itb.write_hits                           0                       # DTB write hits
system.cpu.itb.write_misses                         0                       # DTB write misses
system.cpu.itb.write_acv                            0                       # DTB write access violations
system.cpu.itb.write_accesses                       0                       # DTB write accesses
system.cpu.itb.data_hits                            0                       # DTB hits
system.cpu.itb.data_misses                          0                       # DTB misses
[...]
system.switch_cpus_1.iq.FU_type_0::total   1853072447                       # Type of FU issued
system.switch_cpus_1.iq.rate                 0.266097                       # Inst issue rate
system.switch_cpus_1.iq.fu_busy_cnt              4246                       # FU busy when requested
system.switch_cpus_1.iq.fu_busy_rate         0.000002                       # FU busy rate (busy events/executed inst)
system.switch_cpus_1.iq.int_inst_queue_reads  10670052999                       # Number of integer instruction queue reads
system.switch_cpus_1.iq.int_inst_queue_writes   6295227083                       # Number of integer instruction queue writes
system.switch_cpus_1.iq.int_inst_queue_wakeup_accesses   1164737414                       # Number of integer instruction queue wakeup accesses
system.switch_cpus_1.iq.fp_inst_queue_reads            0                       # Number of floating instruction queue reads
system.switch_cpus_1.iq.fp_inst_queue_writes            0                       # Number of floating instruction queue writes
system.switch_cpus_1.iq.fp_inst_queue_wakeup_accesses            0                       # Number of floating instruction queue wakeup accesses
system.switch_cpus_1.iq.int_alu_accesses   1853076693                       # Number of integer alu accesses
system.switch_cpus_1.iq.fp_alu_accesses             0                       # Number of floating point alu accesses
system.switch_cpus_1.iew.lsq.thread0.forwLoads          926                       # Number of loads that had data forwarded from stores
system.switch_cpus_1.iew.lsq.thread0.invAddrLoads            0                       # Number of loads ignored due to an invalid address
system.switch_cpus_1.iew.lsq.thread0.squashedLoads   1003992085                       # Number of loads squashed
system.switch_cpus_1.iew.lsq.thread0.ignoredResponses           13                       # Number of memory responses ignored because the instruction is squashed
system.switch_cpus_1.iew.lsq.thread0.memOrderViolation           40                       # Number of memory ordering violations
system.switch_cpus_1.iew.lsq.thread0.squashedStores       136278                       # Number of stores squashed
system.switch_cpus_1.iew.lsq.thread0.invAddrSwpfs            0                       # Number of software prefetches ignored due to an invalid address
system.switch_cpus_1.iew.lsq.thread0.blockedLoads            0                       # Number of blocked loads due to partial load-store forwarding
system.switch_cpus_1.iew.lsq.thread0.rescheduledLoads            0                       # Number of loads that were rescheduled
system.switch_cpus_1.iew.lsq.thread0.cacheBlocked         6847                       # Number of times an access to memory failed due to the cache being blocked
system.switch_cpus_1.iew.iewIdleCycles              0                       # Number of cycles IEW is idle
system.switch_cpus_1.iew.iewSquashCycles     33186782                       # Number of cycles IEW is squashing
system.switch_cpus_1.iew.iewBlockCycles    5828052188                       # Number of cycles IEW is blocking
system.switch_cpus_1.iew.iewUnblockCycles     40656140                       # Number of cycles IEW is unblocking
system.switch_cpus_1.iew.iewDispatchedInsts   3247632197                       # Number of instructions dispatched to IQ
system.switch_cpus_1.iew.iewDispSquashedInsts         4483                       # Number of squashed instructions skipped by dispatch
system.switch_cpus_1.iew.iewDispLoadInsts   1068246266                       # Number of dispatched load instructions
system.switch_cpus_1.iew.iewDispStoreInsts       148605                       # Number of dispatched store instructions
system.switch_cpus_1.iew.iewDispNonSpecInsts            0                       # Number of dispatched non-speculative instructions
system.switch_cpus_1.iew.iewIQFullEvents     19169418                       # Number of times the IQ has become full, causing a stall
system.switch_cpus_1.iew.iewLSQFullEvents      3619897                       # Number of times the LSQ has become full, causing a stall
system.switch_cpus_1.iew.memOrderViolationEvents           40                       # Number of memory order violations
system.switch_cpus_1.iew.predictedTakenIncorrect      1685523                       # Number of branches that were predicted taken incorrectly
system.switch_cpus_1.iew.predictedNotTakenIncorrect      2826056                       # Number of branches that were predicted not taken incorrectly
system.switch_cpus_1.iew.branchMispredicts      4511579                       # Number of branch mispredicts detected at execute
system.switch_cpus_1.iew.iewExecutedInsts   1848884465                       # Number of executed instructions
system.switch_cpus_1.iew.iewExecLoadInsts    748479647                       # Number of load instructions executed
system.switch_cpus_1.iew.iewExecSquashedInsts      4187980                       # Number of squashed instructions skipped in execute
system.switch_cpus_1.iew.exec_swp                   0                       # number of swp insts executed
system.switch_cpus_1.iew.exec_nop               18626                       # number of nop insts executed
system.switch_cpus_1.iew.exec_refs          748502106                       # number of memory reference insts executed
system.switch_cpus_1.iew.exec_branches      219694631                       # Number of branches executed
system.switch_cpus_1.iew.exec_stores            22459                       # Number of stores executed
system.switch_cpus_1.iew.exec_rate           0.265495                       # Inst execution rate
system.switch_cpus_1.iew.wb_sent           1847970539                       # cumulative count of insts sent to commit
system.switch_cpus_1.iew.wb_count          1164737414                       # cumulative count of insts written-back
system.switch_cpus_1.iew.wb_producers       670505486                       # num instructions producing a value
system.switch_cpus_1.iew.wb_consumers       923377747                       # num instructions consuming a value
system.switch_cpus_1.iew.wb_rate             0.167254                       # insts written-back per cycle
system.switch_cpus_1.iew.wb_fanout           0.726144                       # average fanout of values written-back
system.switch_cpus_1.commit.commitSquashedInsts   2815835342                       # The number of squashed insts skipped by commit
system.switch_cpus_1.commit.branchMispredicts      4333901                       # The number of times a branch was mispredicted
system.switch_cpus_1.commit.committed_per_cycle::samples   6599329184                       # Number of insts commited each cycle
system.switch_cpus_1.commit.committed_per_cycle::mean     0.030306                       # Number of insts commited each cycle
system.switch_cpus_1.commit.committed_per_cycle::stdev     0.326010                       # Number of insts commited each cycle
system.switch_cpus_1.commit.committed_per_cycle::underflows            0      0.00%      0.00% # Number of insts commited each cycle
system.switch_cpus_1.commit.committed_per_cycle::0   6496999023     98.45%     98.45% # Number of insts commited each cycle
system.switch_cpus_1.commit.committed_per_cycle::1     55554763      0.84%     99.29% # Number of insts commited each cycle
system.switch_cpus_1.commit.committed_per_cycle::2     32104144      0.49%     99.78% # Number of insts commited each cycle
system.switch_cpus_1.commit.committed_per_cycle::3      6061668      0.09%     99.87% # Number of insts commited each cycle
system.switch_cpus_1.commit.committed_per_cycle::4      1675294      0.03%     99.89% # Number of insts commited each cycle
system.switch_cpus_1.commit.committed_per_cycle::5        25018      0.00%     99.90% # Number of insts commited each cycle
system.switch_cpus_1.commit.committed_per_cycle::6         3190      0.00%     99.90% # Number of insts commited each cycle
system.switch_cpus_1.commit.committed_per_cycle::7        40404      0.00%     99.90% # Number of insts commited each cycle
system.switch_cpus_1.commit.committed_per_cycle::8      6865680      0.10%    100.00% # Number of insts commited each cycle
system.switch_cpus_1.commit.committed_per_cycle::overflows            0      0.00%    100.00% # Number of insts commited each cycle
system.switch_cpus_1.commit.committed_per_cycle::min_value            0                       # Number of insts commited each cycle
system.switch_cpus_1.commit.committed_per_cycle::max_value            8                       # Number of insts commited each cycle
system.switch_cpus_1.commit.committed_per_cycle::total   6599329184                       # Number of insts commited each cycle
system.switch_cpus_1.commit.committedInsts    200001729                       # Number of instructions committed
system.switch_cpus_1.commit.committedOps    200001729                       # Number of ops (including micro ops) committed
system.switch_cpus_1.commit.swp_count               0                       # Number of s/w prefetches committed
system.switch_cpus_1.commit.refs             64266478                       # Number of memory references committed
system.switch_cpus_1.commit.loads            64254151                       # Number of loads committed
system.switch_cpus_1.commit.membars                 0                       # Number of memory barriers committed
system.switch_cpus_1.commit.branches         49624817                       # Number of branches committed
system.switch_cpus_1.commit.fp_insts                0                       # Number of committed floating point instructions.
system.switch_cpus_1.commit.int_insts       199961763                       # Number of committed integer instructions.
system.switch_cpus_1.commit.function_calls          438                       # Number of function calls committed.
system.switch_cpus_1.commit.op_class_0::No_OpClass         1722      0.00%      0.00% # Class of committed instruction
system.switch_cpus_1.commit.op_class_0::IntAlu    135733506     67.87%     67.87% # Class of committed instruction
system.switch_cpus_1.commit.op_class_0::IntMult           23      0.00%     67.87% # Class of committed instruction
system.switch_cpus_1.commit.op_class_0::IntDiv            0      0.00%     67.87% # Class of committed instruction
system.switch_cpus_1.commit.op_class_0::FloatAdd            0      0.00%     67.87% # Class of committed instruction
system.switch_cpus_1.commit.op_class_0::FloatCmp            0      0.00%     67.87% # Class of committed instruction
system.switch_cpus_1.commit.op_class_0::FloatCvt            0      0.00%     67.87% # Class of committed instruction
system.switch_cpus_1.commit.op_class_0::FloatMult            0      0.00%     67.87% # Class of committed instruction
system.switch_cpus_1.commit.op_class_0::FloatMultAcc            0      0.00%     67.87% # Class of committed instruction
system.switch_cpus_1.commit.op_class_0::FloatDiv            0      0.00%     67.87% # Class of committed instruction
system.switch_cpus_1.commit.op_class_0::FloatMisc            0      0.00%     67.87% # Class of committed instruction
system.switch_cpus_1.commit.op_class_0::FloatSqrt            0      0.00%     67.87% # Class of committed instruction
system.switch_cpus_1.commit.op_class_0::SimdAdd            0      0.00%     67.87% # Class of committed instruction
system.switch_cpus_1.commit.op_class_0::SimdAddAcc            0      0.00%     67.87% # Class of committed instruction
system.switch_cpus_1.commit.op_class_0::SimdAlu            0      0.00%     67.87% # Class of committed instruction
system.switch_cpus_1.commit.op_class_0::SimdCmp            0      0.00%     67.87% # Class of committed instruction
system.switch_cpus_1.commit.op_class_0::SimdCvt            0      0.00%     67.87% # Class of committed instruction
system.switch_cpus_1.commit.op_class_0::SimdMisc            0      0.00%     67.87% # Class of committed instruction
system.switch_cpus_1.commit.op_class_0::SimdMult            0      0.00%     67.87% # Class of committed instruction
system.switch_cpus_1.commit.op_class_0::SimdMultAcc            0      0.00%     67.87% # Class of committed instruction
system.switch_cpus_1.commit.op_class_0::SimdShift            0      0.00%     67.87% # Class of committed instruction
system.switch_cpus_1.commit.op_class_0::SimdShiftAcc            0      0.00%     67.87% # Class of committed instruction
system.switch_cpus_1.commit.op_class_0::SimdSqrt            0      0.00%     67.87% # Class of committed instruction
system.switch_cpus_1.commit.op_class_0::SimdFloatAdd            0      0.00%     67.87% # Class of committed instruction
system.switch_cpus_1.commit.op_class_0::SimdFloatAlu            0      0.00%     67.87% # Class of committed instruction
system.switch_cpus_1.commit.op_class_0::SimdFloatCmp            0      0.00%     67.87% # Class of committed instruction
system.switch_cpus_1.commit.op_class_0::SimdFloatCvt            0      0.00%     67.87% # Class of committed instruction
system.switch_cpus_1.commit.op_class_0::SimdFloatDiv            0      0.00%     67.87% # Class of committed instruction
system.switch_cpus_1.commit.op_class_0::SimdFloatMisc            0      0.00%     67.87% # Class of committed instruction
system.switch_cpus_1.commit.op_class_0::SimdFloatMult            0      0.00%     67.87% # Class of committed instruction
system.switch_cpus_1.commit.op_class_0::SimdFloatMultAcc            0      0.00%     67.87% # Class of committed instruction
system.switch_cpus_1.commit.op_class_0::SimdFloatSqrt            0      0.00%     67.87% # Class of committed instruction
system.switch_cpus_1.commit.op_class_0::MemRead     64254151     32.13%     99.99% # Class of committed instruction
system.switch_cpus_1.commit.op_class_0::MemWrite        12327      0.01%    100.00% # Class of committed instruction
system.switch_cpus_1.commit.op_class_0::FloatMemRead            0      0.00%    100.00% # Class of committed instruction
system.switch_cpus_1.commit.op_class_0::FloatMemWrite            0      0.00%    100.00% # Class of committed instruction
system.switch_cpus_1.commit.op_class_0::IprAccess            0      0.00%    100.00% # Class of committed instruction
system.switch_cpus_1.commit.op_class_0::InstPrefetch            0      0.00%    100.00% # Class of committed instruction
system.switch_cpus_1.commit.op_class_0::total    200001729                       # Class of committed instruction
system.switch_cpus_1.commit.bw_lim_events      6865680                       # number cycles where commit BW limit reached
system.switch_cpus_1.rob.rob_reads         9233213564                       # The number of ROB reads
system.switch_cpus_1.rob.rob_writes        6396248501                       # The number of ROB writes
system.switch_cpus_1.timesIdled                     9                       # Number of times that the entire CPU went into an idle state and unscheduled itself
system.switch_cpus_1.idleCycles                   429                       # Total number of cycles that the CPU has spent unscheduled due to idling
system.switch_cpus_1.committedInsts         200000007                       # Number of Instructions Simulated
system.switch_cpus_1.committedOps           200000007                       # Number of Ops (including micro ops) Simulated
system.switch_cpus_1.cpi                    34.819517                       # CPI: Cycles Per Instruction
system.switch_cpus_1.cpi_total              34.819517                       # CPI: Total CPI of All Threads
system.switch_cpus_1.ipc                     0.028720                       # IPC: Instructions Per Cycle
system.switch_cpus_1.ipc_total               0.028720                       # IPC: Total IPC of All Threads
system.switch_cpus_1.int_regfile_reads     2717053688                       # number of integer regfile reads
system.switch_cpus_1.int_regfile_writes     945049735                       # number of integer regfile writes
system.switch_cpus_1.fp_regfile_writes             32                       # number of floating regfile writes
system.tol3bus.snoop_filter.tot_requests    284833301                       # Total number of requests made to the snoop filter.
system.tol3bus.snoop_filter.hit_single_requests    142414764                       # Number of requests hitting in the snoop filter with a single holder of the requested data.
system.tol3bus.snoop_filter.hit_multi_requests            0                       # Number of requests hitting in the snoop filter with multiple (>1) holders of the requested data.
system.tol3bus.snoop_filter.tot_snoops         153217                       # Total number of snoops made to the snoop filter.
system.tol3bus.snoop_filter.hit_single_snoops       153217                       # Number of snoops hitting in the snoop filter with a single holder of the requested data.
system.tol3bus.snoop_filter.hit_multi_snoops            0                       # Number of snoops hitting in the snoop filter with multiple (>1) holders of the requested data.
system.tol3bus.pwrStateResidencyTicks::UNDEFINED 175058836156107                       # Cumulative time (in ticks) in various power states
system.tol3bus.trans_dist::ReadResp         142404679                       # Transaction distribution
system.tol3bus.trans_dist::WritebackDirty      5120238                       # Transaction distribution
system.tol3bus.trans_dist::CleanEvict       205485025                       # Transaction distribution
system.tol3bus.trans_dist::ReadExReq            13858                       # Transaction distribution
system.tol3bus.trans_dist::ReadExResp           13858                       # Transaction distribution
system.tol3bus.trans_dist::ReadSharedReq    142404679                       # Transaction distribution
system.tol3bus.pkt_count_system.cpu.l2.mem_side::system.l3.cpu_side    427251838                       # Packet count per connected master and slave (bytes)
system.tol3bus.pkt_size_system.cpu.l2.mem_side::system.l3.cpu_side   9435342016                       # Cumulative packet size per connected master and slave (bytes)
system.tol3bus.snoops                        68190499                       # Total snoops (count)
system.tol3bus.snoopTraffic                   7139584                       # Total snoop traffic (bytes)
system.tol3bus.snoop_fanout::samples        210609036                       # Request fanout histogram
system.tol3bus.snoop_fanout::mean            0.000727                       # Request fanout histogram
system.tol3bus.snoop_fanout::stdev           0.026962                       # Request fanout histogram
system.tol3bus.snoop_fanout::underflows             0      0.00%      0.00% # Request fanout histogram
system.tol3bus.snoop_fanout::0              210455819     99.93%     99.93% # Request fanout histogram
system.tol3bus.snoop_fanout::1                 153217      0.07%    100.00% # Request fanout histogram
system.tol3bus.snoop_fanout::overflows              0      0.00%    100.00% # Request fanout histogram
system.tol3bus.snoop_fanout::min_value              0                       # Request fanout histogram
system.tol3bus.snoop_fanout::max_value              1                       # Request fanout histogram
system.tol3bus.snoop_fanout::total          210609036                       # Request fanout histogram
system.tol3bus.reqLayer0.occupancy        96517380339                       # Layer occupancy (ticks)
system.tol3bus.reqLayer0.utilization              0.7                       # Layer utilization (%)
system.tol3bus.respLayer0.occupancy       94850745642                       # Layer occupancy (ticks)
system.tol3bus.respLayer0.utilization             0.7                       # Layer utilization (%)

---------- End Simulation Statistics   ----------
