
---------- Begin Simulation Statistics ----------
sim_seconds                                 13.505422                       # Number of seconds simulated
sim_ticks                                13505421788514                       # Number of ticks simulated
final_tick                               175587604951014                       # Number of ticks from beginning of simulation (restored from checkpoints and never reset)
sim_freq                                 1000000000000                       # Frequency of simulated ticks
host_inst_rate                                  42899                       # Simulator instruction rate (inst/s)
host_op_rate                                    42899                       # Simulator op (including micro ops) rate (op/s)
host_tick_rate                              482804794                       # Simulator tick rate (ticks/s)
host_mem_usage                                2689556                       # Number of bytes of host memory used
host_seconds                                 27972.84                       # Real time elapsed on the host
sim_insts                                  1200000012                       # Number of instructions simulated
sim_ops                                    1200000012                       # Number of ops (including micro ops) simulated
system.voltage_domain.voltage                       1                       # Voltage in Volts
system.clk_domain.clock                          1000                       # Clock period in ticks
system.mem_ctrls0.pwrStateResidencyTicks::UNDEFINED 175587604951014                       # Cumulative time (in ticks) in various power states
system.mem_ctrls0.bytes_read::cpu.inst            128                       # Number of bytes read from this memory
system.mem_ctrls0.bytes_read::switch_cpus.inst         1472                       # Number of bytes read from this memory
system.mem_ctrls0.bytes_read::switch_cpus.data   1948632448                       # Number of bytes read from this memory
system.mem_ctrls0.bytes_read::switch_cpus_1.inst          128                       # Number of bytes read from this memory
system.mem_ctrls0.bytes_read::switch_cpus_1.data    388993344                       # Number of bytes read from this memory
system.mem_ctrls0.bytes_read::total        2337627520                       # Number of bytes read from this memory
system.mem_ctrls0.bytes_inst_read::cpu.inst          128                       # Number of instructions bytes read from this memory
system.mem_ctrls0.bytes_inst_read::switch_cpus.inst         1472                       # Number of instructions bytes read from this memory
system.mem_ctrls0.bytes_inst_read::switch_cpus_1.inst          128                       # Number of instructions bytes read from this memory
system.mem_ctrls0.bytes_inst_read::total         1728                       # Number of instructions bytes read from this memory
system.mem_ctrls0.bytes_written::writebacks      3685184                       # Number of bytes written to this memory
system.mem_ctrls0.bytes_written::total        3685184                       # Number of bytes written to this memory
system.mem_ctrls0.num_reads::cpu.inst               2                       # Number of read requests responded to by this memory
system.mem_ctrls0.num_reads::switch_cpus.inst           23                       # Number of read requests responded to by this memory
system.mem_ctrls0.num_reads::switch_cpus.data     30447382                       # Number of read requests responded to by this memory
system.mem_ctrls0.num_reads::switch_cpus_1.inst            2                       # Number of read requests responded to by this memory
system.mem_ctrls0.num_reads::switch_cpus_1.data      6078021                       # Number of read requests responded to by this memory
system.mem_ctrls0.num_reads::total           36525430                       # Number of read requests responded to by this memory
system.mem_ctrls0.num_writes::writebacks        57581                       # Number of write requests responded to by this memory
system.mem_ctrls0.num_writes::total             57581                       # Number of write requests responded to by this memory
system.mem_ctrls0.bw_read::cpu.inst                 9                       # Total read bandwidth from this memory (bytes/s)
system.mem_ctrls0.bw_read::switch_cpus.inst          109                       # Total read bandwidth from this memory (bytes/s)
system.mem_ctrls0.bw_read::switch_cpus.data    144285197                       # Total read bandwidth from this memory (bytes/s)
system.mem_ctrls0.bw_read::switch_cpus_1.inst            9                       # Total read bandwidth from this memory (bytes/s)
system.mem_ctrls0.bw_read::switch_cpus_1.data     28802754                       # Total read bandwidth from this memory (bytes/s)
system.mem_ctrls0.bw_read::total            173088079                       # Total read bandwidth from this memory (bytes/s)
system.mem_ctrls0.bw_inst_read::cpu.inst            9                       # Instruction read bandwidth from this memory (bytes/s)
system.mem_ctrls0.bw_inst_read::switch_cpus.inst          109                       # Instruction read bandwidth from this memory (bytes/s)
system.mem_ctrls0.bw_inst_read::switch_cpus_1.inst            9                       # Instruction read bandwidth from this memory (bytes/s)
system.mem_ctrls0.bw_inst_read::total             128                       # Instruction read bandwidth from this memory (bytes/s)
system.mem_ctrls0.bw_write::writebacks         272867                       # Write bandwidth from this memory (bytes/s)
system.mem_ctrls0.bw_write::total              272867                       # Write bandwidth from this memory (bytes/s)
system.mem_ctrls0.bw_total::writebacks         272867                       # Total bandwidth to/from this memory (bytes/s)
system.mem_ctrls0.bw_total::cpu.inst                9                       # Total bandwidth to/from this memory (bytes/s)
system.mem_ctrls0.bw_total::switch_cpus.inst          109                       # Total bandwidth to/from this memory (bytes/s)
system.mem_ctrls0.bw_total::switch_cpus.data    144285197                       # Total bandwidth to/from this memory (bytes/s)
system.mem_ctrls0.bw_total::switch_cpus_1.inst            9                       # Total bandwidth to/from this memory (bytes/s)
system.mem_ctrls0.bw_total::switch_cpus_1.data     28802754                       # Total bandwidth to/from this memory (bytes/s)
system.mem_ctrls0.bw_total::total           173360946                       # Total bandwidth to/from this memory (bytes/s)
system.mem_ctrls0.readReqs                   36525430                       # Number of read requests accepted
system.mem_ctrls0.writeReqs                     57581                       # Number of write requests accepted
system.mem_ctrls0.readBursts                 36525430                       # Number of DRAM read bursts, including those serviced by the write queue
system.mem_ctrls0.writeBursts                   57581                       # Number of DRAM write bursts, including those merged in the write queue
system.mem_ctrls0.bytesReadDRAM            2337200704                       # Total number of bytes read from DRAM
system.mem_ctrls0.bytesReadWrQ                 426816                       # Total number of bytes read from write queue
system.mem_ctrls0.bytesWritten                3666688                       # Total number of bytes written to DRAM
system.mem_ctrls0.bytesReadSys             2337627520                       # Total read bytes from the system interface side
system.mem_ctrls0.bytesWrittenSys             3685184                       # Total written bytes from the system interface side
system.mem_ctrls0.servicedByWrQ                  6669                       # Number of DRAM read bursts serviced by the write queue
system.mem_ctrls0.mergedWrBursts                  269                       # Number of DRAM write bursts merged with an existing one
system.mem_ctrls0.neitherReadNorWriteReqs            0                       # Number of requests that are neither read nor write
system.mem_ctrls0.perBankRdBursts::0          2281922                       # Per bank write bursts
system.mem_ctrls0.perBankRdBursts::1          2289446                       # Per bank write bursts
system.mem_ctrls0.perBankRdBursts::2          2299856                       # Per bank write bursts
system.mem_ctrls0.perBankRdBursts::3          2292237                       # Per bank write bursts
system.mem_ctrls0.perBankRdBursts::4          2283306                       # Per bank write bursts
system.mem_ctrls0.perBankRdBursts::5          2280605                       # Per bank write bursts
system.mem_ctrls0.perBankRdBursts::6          2287490                       # Per bank write bursts
system.mem_ctrls0.perBankRdBursts::7          2266316                       # Per bank write bursts
system.mem_ctrls0.perBankRdBursts::8          2292527                       # Per bank write bursts
system.mem_ctrls0.perBankRdBursts::9          2279105                       # Per bank write bursts
system.mem_ctrls0.perBankRdBursts::10         2294853                       # Per bank write bursts
system.mem_ctrls0.perBankRdBursts::11         2292970                       # Per bank write bursts
system.mem_ctrls0.perBankRdBursts::12         2266918                       # Per bank write bursts
system.mem_ctrls0.perBankRdBursts::13         2272248                       # Per bank write bursts
system.mem_ctrls0.perBankRdBursts::14         2275632                       # Per bank write bursts
system.mem_ctrls0.perBankRdBursts::15         2263330                       # Per bank write bursts
system.mem_ctrls0.perBankWrBursts::0             3326                       # Per bank write bursts
system.mem_ctrls0.perBankWrBursts::1             3403                       # Per bank write bursts
system.mem_ctrls0.perBankWrBursts::2             3305                       # Per bank write bursts
system.mem_ctrls0.perBankWrBursts::3             4360                       # Per bank write bursts
system.mem_ctrls0.perBankWrBursts::4             4877                       # Per bank write bursts
system.mem_ctrls0.perBankWrBursts::5             3421                       # Per bank write bursts
system.mem_ctrls0.perBankWrBursts::6             3335                       # Per bank write bursts
system.mem_ctrls0.perBankWrBursts::7             3656                       # Per bank write bursts
system.mem_ctrls0.perBankWrBursts::8             3726                       # Per bank write bursts
system.mem_ctrls0.perBankWrBursts::9             3427                       # Per bank write bursts
system.mem_ctrls0.perBankWrBursts::10            3476                       # Per bank write bursts
system.mem_ctrls0.perBankWrBursts::11            3449                       # Per bank write bursts
system.mem_ctrls0.perBankWrBursts::12            3341                       # Per bank write bursts
system.mem_ctrls0.perBankWrBursts::13            3393                       # Per bank write bursts
system.mem_ctrls0.perBankWrBursts::14            3384                       # Per bank write bursts
system.mem_ctrls0.perBankWrBursts::15            3413                       # Per bank write bursts
system.mem_ctrls0.numRdRetry                        0                       # Number of times read queue was full causing retry
system.mem_ctrls0.numWrRetry                        0                       # Number of times write queue was full causing retry
system.mem_ctrls0.totGap                 13505420963430                       # Total gap between requests
system.mem_ctrls0.readPktSize::0                    0                       # Read request sizes (log2)
system.mem_ctrls0.readPktSize::1                    0                       # Read request sizes (log2)
system.mem_ctrls0.readPktSize::2                    0                       # Read request sizes (log2)
system.mem_ctrls0.readPktSize::3                    0                       # Read request sizes (log2)
system.mem_ctrls0.readPktSize::4                    0                       # Read request sizes (log2)
system.mem_ctrls0.readPktSize::5                    0                       # Read request sizes (log2)
system.mem_ctrls0.readPktSize::6             36525430                       # Read request sizes (log2)
system.mem_ctrls0.writePktSize::0                   0                       # Write request sizes (log2)
system.mem_ctrls0.writePktSize::1                   0                       # Write request sizes (log2)
system.mem_ctrls0.writePktSize::2                   0                       # Write request sizes (log2)
system.mem_ctrls0.writePktSize::3                   0                       # Write request sizes (log2)
system.mem_ctrls0.writePktSize::4                   0                       # Write request sizes (log2)
system.mem_ctrls0.writePktSize::5                   0                       # Write request sizes (log2)
system.mem_ctrls0.writePktSize::6               57581                       # Write request sizes (log2)
system.mem_ctrls0.rdQLenPdf::0               36517790                       # What read queue length does an incoming req see
system.mem_ctrls0.rdQLenPdf::1                    948                       # What read queue length does an incoming req see
system.mem_ctrls0.rdQLenPdf::2                     23                       # What read queue length does an incoming req see
system.mem_ctrls0.rdQLenPdf::3                      0                       # What read queue length does an incoming req see
system.mem_ctrls0.rdQLenPdf::4                      0                       # What read queue length does an incoming req see
system.mem_ctrls0.rdQLenPdf::5                      0                       # What read queue length does an incoming req see
system.mem_ctrls0.rdQLenPdf::6                      0                       # What read queue length does an incoming req see
system.mem_ctrls0.rdQLenPdf::7                      0                       # What read queue length does an incoming req see
system.mem_ctrls0.rdQLenPdf::8                      0                       # What read queue length does an incoming req see
system.mem_ctrls0.rdQLenPdf::9                      0                       # What read queue length does an incoming req see
system.mem_ctrls0.rdQLenPdf::10                     0                       # What read queue length does an incoming req see
system.mem_ctrls0.rdQLenPdf::11                     0                       # What read queue length does an incoming req see
system.mem_ctrls0.rdQLenPdf::12                     0                       # What read queue length does an incoming req see
system.mem_ctrls0.rdQLenPdf::13                     0                       # What read queue length does an incoming req see
system.mem_ctrls0.rdQLenPdf::14                     0                       # What read queue length does an incoming req see
system.mem_ctrls0.rdQLenPdf::15                     0                       # What read queue length does an incoming req see
system.mem_ctrls0.rdQLenPdf::16                     0                       # What read queue length does an incoming req see
system.mem_ctrls0.rdQLenPdf::17                     0                       # What read queue length does an incoming req see
system.mem_ctrls0.rdQLenPdf::18                     0                       # What read queue length does an incoming req see
system.mem_ctrls0.rdQLenPdf::19                     0                       # What read queue length does an incoming req see
system.mem_ctrls0.rdQLenPdf::20                     0                       # What read queue length does an incoming req see
system.mem_ctrls0.rdQLenPdf::21                     0                       # What read queue length does an incoming req see
system.mem_ctrls0.rdQLenPdf::22                     0                       # What read queue length does an incoming req see
system.mem_ctrls0.rdQLenPdf::23                     0                       # What read queue length does an incoming req see
system.mem_ctrls0.rdQLenPdf::24                     0                       # What read queue length does an incoming req see
system.mem_ctrls0.rdQLenPdf::25                     0                       # What read queue length does an incoming req see
system.mem_ctrls0.rdQLenPdf::26                     0                       # What read queue length does an incoming req see
system.mem_ctrls0.rdQLenPdf::27                     0                       # What read queue length does an incoming req see
system.mem_ctrls0.rdQLenPdf::28                     0                       # What read queue length does an incoming req see
system.mem_ctrls0.rdQLenPdf::29                     0                       # What read queue length does an incoming req see
system.mem_ctrls0.rdQLenPdf::30                     0                       # What read queue length does an incoming req see
system.mem_ctrls0.rdQLenPdf::31                     0                       # What read queue length does an incoming req see
system.mem_ctrls0.wrQLenPdf::0                      2                       # What write queue length does an incoming req see
system.mem_ctrls0.wrQLenPdf::1                      2                       # What write queue length does an incoming req see
system.mem_ctrls0.wrQLenPdf::2                      2                       # What write queue length does an incoming req see
system.mem_ctrls0.wrQLenPdf::3                      2                       # What write queue length does an incoming req see
system.mem_ctrls0.wrQLenPdf::4                      2                       # What write queue length does an incoming req see
system.mem_ctrls0.wrQLenPdf::5                      2                       # What write queue length does an incoming req see
system.mem_ctrls0.wrQLenPdf::6                      2                       # What write queue length does an incoming req see
system.mem_ctrls0.wrQLenPdf::7                      2                       # What write queue length does an incoming req see
system.mem_ctrls0.wrQLenPdf::8                      2                       # What write queue length does an incoming req see
system.mem_ctrls0.wrQLenPdf::9                      2                       # What write queue length does an incoming req see
system.mem_ctrls0.wrQLenPdf::10                     2                       # What write queue length does an incoming req see
system.mem_ctrls0.wrQLenPdf::11                     2                       # What write queue length does an incoming req see
system.mem_ctrls0.wrQLenPdf::12                     2                       # What write queue length does an incoming req see
system.mem_ctrls0.wrQLenPdf::13                     2                       # What write queue length does an incoming req see
system.mem_ctrls0.wrQLenPdf::14                     2                       # What write queue length does an incoming req see
system.mem_ctrls0.wrQLenPdf::15                  2203                       # What write queue length does an incoming req see
system.mem_ctrls0.wrQLenPdf::16                  2263                       # What write queue length does an incoming req see
system.mem_ctrls0.wrQLenPdf::17                  3297                       # What write queue length does an incoming req see
system.mem_ctrls0.wrQLenPdf::18                  3304                       # What write queue length does an incoming req see
system.mem_ctrls0.wrQLenPdf::19                  3302                       # What write queue length does an incoming req see
system.mem_ctrls0.wrQLenPdf::20                  3300                       # What write queue length does an incoming req see
system.mem_ctrls0.wrQLenPdf::21                  3301                       # What write queue length does an incoming req see
system.mem_ctrls0.wrQLenPdf::22                  3300                       # What write queue length does an incoming req see
system.mem_ctrls0.wrQLenPdf::23                  3300                       # What write queue length does an incoming req see
system.mem_ctrls0.wrQLenPdf::24                  3301                       # What write queue length does an incoming req see
system.mem_ctrls0.wrQLenPdf::25                  3307                       # What write queue length does an incoming req see
system.mem_ctrls0.wrQLenPdf::26                  3303                       # What write queue length does an incoming req see
system.mem_ctrls0.wrQLenPdf::27                  3301                       # What write queue length does an incoming req see
system.mem_ctrls0.wrQLenPdf::28                  3300                       # What write queue length does an incoming req see
system.mem_ctrls0.wrQLenPdf::29                  3300                       # What write queue length does an incoming req see
system.mem_ctrls0.wrQLenPdf::30                  3300                       # What write queue length does an incoming req see
system.mem_ctrls0.wrQLenPdf::31                  3300                       # What write queue length does an incoming req see
system.mem_ctrls0.wrQLenPdf::32                  3300                       # What write queue length does an incoming req see
system.mem_ctrls0.wrQLenPdf::33                     0                       # What write queue length does an incoming req see
system.mem_ctrls0.wrQLenPdf::34                     0                       # What write queue length does an incoming req see
system.mem_ctrls0.wrQLenPdf::35                     0                       # What write queue length does an incoming req see
system.mem_ctrls0.wrQLenPdf::36                     0                       # What write queue length does an incoming req see
system.mem_ctrls0.wrQLenPdf::37                     0                       # What write queue length does an incoming req see
system.mem_ctrls0.wrQLenPdf::38                     0                       # What write queue length does an incoming req see
system.mem_ctrls0.wrQLenPdf::39                     0                       # What write queue length does an incoming req see
system.mem_ctrls0.wrQLenPdf::40                     0                       # What write queue length does an incoming req see
system.mem_ctrls0.wrQLenPdf::41                     0                       # What write queue length does an incoming req see
system.mem_ctrls0.wrQLenPdf::42                     0                       # What write queue length does an incoming req see
system.mem_ctrls0.wrQLenPdf::43                     0                       # What write queue length does an incoming req see
system.mem_ctrls0.wrQLenPdf::44                     0                       # What write queue length does an incoming req see
system.mem_ctrls0.wrQLenPdf::45                     0                       # What write queue length does an incoming req see
system.mem_ctrls0.wrQLenPdf::46                     0                       # What write queue length does an incoming req see
system.mem_ctrls0.wrQLenPdf::47                     0                       # What write queue length does an incoming req see
system.mem_ctrls0.wrQLenPdf::48                     0                       # What write queue length does an incoming req see
system.mem_ctrls0.wrQLenPdf::49                     0                       # What write queue length does an incoming req see
system.mem_ctrls0.wrQLenPdf::50                     0                       # What write queue length does an incoming req see
system.mem_ctrls0.wrQLenPdf::51                     0                       # What write queue length does an incoming req see
system.mem_ctrls0.wrQLenPdf::52                     0                       # What write queue length does an incoming req see
system.mem_ctrls0.wrQLenPdf::53                     0                       # What write queue length does an incoming req see
system.mem_ctrls0.wrQLenPdf::54                     0                       # What write queue length does an incoming req see
system.mem_ctrls0.wrQLenPdf::55                     0                       # What write queue length does an incoming req see
system.mem_ctrls0.wrQLenPdf::56                     0                       # What write queue length does an incoming req see
system.mem_ctrls0.wrQLenPdf::57                     0                       # What write queue length does an incoming req see
system.mem_ctrls0.wrQLenPdf::58                     0                       # What write queue length does an incoming req see
system.mem_ctrls0.wrQLenPdf::59                     0                       # What write queue length does an incoming req see
system.mem_ctrls0.wrQLenPdf::60                     0                       # What write queue length does an incoming req see
system.mem_ctrls0.wrQLenPdf::61                     0                       # What write queue length does an incoming req see
system.mem_ctrls0.wrQLenPdf::62                     0                       # What write queue length does an incoming req see
system.mem_ctrls0.wrQLenPdf::63                     0                       # What write queue length does an incoming req see
system.mem_ctrls0.bytesPerActivate::samples     36502216                       # Bytes accessed per row activation
system.mem_ctrls0.bytesPerActivate::mean    64.129444                       # Bytes accessed per row activation
system.mem_ctrls0.bytesPerActivate::gmean    64.076599                       # Bytes accessed per row activation
system.mem_ctrls0.bytesPerActivate::stdev     4.181535                       # Bytes accessed per row activation
system.mem_ctrls0.bytesPerActivate::0-127     36448841     99.85%     99.85% # Bytes accessed per row activation
system.mem_ctrls0.bytesPerActivate::128-255        48658      0.13%     99.99% # Bytes accessed per row activation
system.mem_ctrls0.bytesPerActivate::256-383         3547      0.01%    100.00% # Bytes accessed per row activation
system.mem_ctrls0.bytesPerActivate::384-511          831      0.00%    100.00% # Bytes accessed per row activation
system.mem_ctrls0.bytesPerActivate::512-639          228      0.00%    100.00% # Bytes accessed per row activation
system.mem_ctrls0.bytesPerActivate::640-767           65      0.00%    100.00% # Bytes accessed per row activation
system.mem_ctrls0.bytesPerActivate::768-895           29      0.00%    100.00% # Bytes accessed per row activation
system.mem_ctrls0.bytesPerActivate::896-1023           10      0.00%    100.00% # Bytes accessed per row activation
system.mem_ctrls0.bytesPerActivate::1024-1151            7      0.00%    100.00% # Bytes accessed per row activation
system.mem_ctrls0.bytesPerActivate::total     36502216                       # Bytes accessed per row activation
system.mem_ctrls0.rdPerTurnAround::samples         3301                       # Reads before turning the bus around for writes
system.mem_ctrls0.rdPerTurnAround::mean  11037.493790                       # Reads before turning the bus around for writes
system.mem_ctrls0.rdPerTurnAround::gmean   240.660976                       # Reads before turning the bus around for writes
system.mem_ctrls0.rdPerTurnAround::stdev 89245.894056                       # Reads before turning the bus around for writes
system.mem_ctrls0.rdPerTurnAround::0-131071         3246     98.33%     98.33% # Reads before turning the bus around for writes
system.mem_ctrls0.rdPerTurnAround::131072-262143           23      0.70%     99.03% # Reads before turning the bus around for writes
system.mem_ctrls0.rdPerTurnAround::262144-393215           12      0.36%     99.39% # Reads before turning the bus around for writes
system.mem_ctrls0.rdPerTurnAround::393216-524287            5      0.15%     99.55% # Reads before turning the bus around for writes
system.mem_ctrls0.rdPerTurnAround::524288-655359            2      0.06%     99.61% # Reads before turning the bus around for writes
system.mem_ctrls0.rdPerTurnAround::655360-786431            2      0.06%     99.67% # Reads before turning the bus around for writes
system.mem_ctrls0.rdPerTurnAround::786432-917503            4      0.12%     99.79% # Reads before turning the bus around for writes
system.mem_ctrls0.rdPerTurnAround::1.04858e+06-1.17965e+06            1      0.03%     99.82% # Reads before turning the bus around for writes
system.mem_ctrls0.rdPerTurnAround::1.17965e+06-1.31072e+06            1      0.03%     99.85% # Reads before turning the bus around for writes
system.mem_ctrls0.rdPerTurnAround::1.31072e+06-1.44179e+06            2      0.06%     99.91% # Reads before turning the bus around for writes
system.mem_ctrls0.rdPerTurnAround::1.83501e+06-1.96608e+06            2      0.06%     99.97% # Reads before turning the bus around for writes
system.mem_ctrls0.rdPerTurnAround::2.09715e+06-2.22822e+06            1      0.03%    100.00% # Reads before turning the bus around for writes
system.mem_ctrls0.rdPerTurnAround::total         3301                       # Reads before turning the bus around for writes
system.mem_ctrls0.wrPerTurnAround::samples         3301                       # Writes before turning the bus around for reads
system.mem_ctrls0.wrPerTurnAround::mean     17.355953                       # Writes before turning the bus around for reads
system.mem_ctrls0.wrPerTurnAround::gmean    17.330238                       # Writes before turning the bus around for reads
system.mem_ctrls0.wrPerTurnAround::stdev     0.932048                       # Writes before turning the bus around for reads
system.mem_ctrls0.wrPerTurnAround::16            1041     31.54%     31.54% # Writes before turning the bus around for reads
system.mem_ctrls0.wrPerTurnAround::17              58      1.76%     33.29% # Writes before turning the bus around for reads
system.mem_ctrls0.wrPerTurnAround::18            2188     66.28%     99.58% # Writes before turning the bus around for reads
system.mem_ctrls0.wrPerTurnAround::19              14      0.42%    100.00% # Writes before turning the bus around for reads
system.mem_ctrls0.wrPerTurnAround::total         3301                       # Writes before turning the bus around for reads
system.mem_ctrls0.totQLat                1052655338767                       # Total ticks spent queuing
system.mem_ctrls0.totMemAccLat           1737382107517                       # Total ticks spent from burst creation until serviced by the DRAM
system.mem_ctrls0.totBusLat              182593805000                       # Total ticks spent in databus transfers
system.mem_ctrls0.avgQLat                    28825.06                       # Average queueing delay per DRAM burst
system.mem_ctrls0.avgBusLat                   5000.00                       # Average bus latency per DRAM burst
system.mem_ctrls0.avgMemAccLat               47575.06                       # Average memory access latency per DRAM burst
system.mem_ctrls0.avgRdBW                      173.06                       # Average DRAM read bandwidth in MiByte/s
system.mem_ctrls0.avgWrBW                        0.27                       # Average achieved write bandwidth in MiByte/s
system.mem_ctrls0.avgRdBWSys                   173.09                       # Average system read bandwidth in MiByte/s
system.mem_ctrls0.avgWrBWSys                     0.27                       # Average system write bandwidth in MiByte/s
system.mem_ctrls0.peakBW                     12800.00                       # Theoretical peak bandwidth in MiByte/s
system.mem_ctrls0.busUtil                        1.35                       # Data bus utilization in percentage
system.mem_ctrls0.busUtilRead                    1.35                       # Data bus utilization in percentage for reads
system.mem_ctrls0.busUtilWrite                   0.00                       # Data bus utilization in percentage for writes
system.mem_ctrls0.avgRdQLen                      1.00                       # Average read queue length when enqueuing
system.mem_ctrls0.avgWrQLen                     24.57                       # Average write queue length when enqueuing
system.mem_ctrls0.readRowHits                   64903                       # Number of row buffer hits during reads
system.mem_ctrls0.writeRowHits                   8925                       # Number of row buffer hits during writes
system.mem_ctrls0.readRowHitRate                 0.18                       # Row buffer hit rate for reads
system.mem_ctrls0.writeRowHitRate               15.57                       # Row buffer hit rate for writes
system.mem_ctrls0.avgGap                    369171.94                       # Average gap between requests
system.mem_ctrls0.pageHitRate                    0.20                       # Row buffer hit rate, read and write combined
system.mem_ctrls0_0.actEnergy            130469926860                       # Energy for activate commands per rank (pJ)
system.mem_ctrls0_0.preEnergy             69346395525                       # Energy for precharge commands per rank (pJ)
system.mem_ctrls0_0.readEnergy           130527610920                       # Energy for read commands per rank (pJ)
system.mem_ctrls0_0.writeEnergy             154945260                       # Energy for write commands per rank (pJ)
system.mem_ctrls0_0.refreshEnergy        1066129343760.000244                       # Energy for refresh commands per rank (pJ)
system.mem_ctrls0_0.actBackEnergy        556766194860                       # Energy for active background per rank (pJ)
system.mem_ctrls0_0.preBackEnergy         24107487840                       # Energy for precharge background per rank (pJ)
system.mem_ctrls0_0.actPowerDownEnergy   5256815406900                       # Energy for active power-down per rank (pJ)
system.mem_ctrls0_0.prePowerDownEnergy   266251689120                       # Energy for precharge power-down per rank (pJ)
system.mem_ctrls0_0.selfRefreshEnergy        84070200                       # Energy for self refresh per rank (pJ)
system.mem_ctrls0_0.totalEnergy          7500653270205                       # Total energy per rank (pJ)
system.mem_ctrls0_0.averagePower           555.380897                       # Core power per rank (mW)
system.mem_ctrls0_0.totalIdleTime        12222180455964                       # Total Idle time Per DRAM Rank
system.mem_ctrls0_0.memoryStateTime::IDLE  10257535018                       # Time in different power states
system.mem_ctrls0_0.memoryStateTime::REF 450985772000                       # Time in different power states
system.mem_ctrls0_0.memoryStateTime::SREF    195198778                       # Time in different power states
system.mem_ctrls0_0.memoryStateTime::PRE_PDN 693472947326                       # Time in different power states
system.mem_ctrls0_0.memoryStateTime::ACT 821997483946                       # Time in different power states
system.mem_ctrls0_0.memoryStateTime::ACT_PDN 11528512851446                       # Time in different power states
system.mem_ctrls0_1.actEnergy            130155959640                       # Energy for activate commands per rank (pJ)
system.mem_ctrls0_1.preEnergy             69179514195                       # Energy for precharge commands per rank (pJ)
system.mem_ctrls0_1.readEnergy           130216342620                       # Energy for read commands per rank (pJ)
system.mem_ctrls0_1.writeEnergy             144118980                       # Energy for write commands per rank (pJ)
system.mem_ctrls0_1.refreshEnergy        1066136719440.000244                       # Energy for refresh commands per rank (pJ)
system.mem_ctrls0_1.actBackEnergy        555750156180                       # Energy for active background per rank (pJ)
system.mem_ctrls0_1.preBackEnergy         24087523200                       # Energy for precharge background per rank (pJ)
system.mem_ctrls0_1.actPowerDownEnergy   5261011310850                       # Energy for active power-down per rank (pJ)
system.mem_ctrls0_1.prePowerDownEnergy   263555406720                       # Energy for precharge power-down per rank (pJ)
system.mem_ctrls0_1.selfRefreshEnergy       123138600                       # Energy for self refresh per rank (pJ)
system.mem_ctrls0_1.totalEnergy          7500360669405                       # Total energy per rank (pJ)
system.mem_ctrls0_1.averagePower           555.359232                       # Core power per rank (mW)
system.mem_ctrls0_1.totalIdleTime        12224360338383                       # Total Idle time Per DRAM Rank
system.mem_ctrls0_1.memoryStateTime::IDLE  10283911831                       # Time in different power states
system.mem_ctrls0_1.memoryStateTime::REF 450989060000                       # Time in different power states
system.mem_ctrls0_1.memoryStateTime::SREF    294740310                       # Time in different power states
system.mem_ctrls0_1.memoryStateTime::PRE_PDN 686636638151                       # Time in different power states
system.mem_ctrls0_1.memoryStateTime::ACT 819787530121                       # Time in different power states
system.mem_ctrls0_1.memoryStateTime::ACT_PDN 11537429908101                       # Time in different power states
system.mem_ctrls1.pwrStateResidencyTicks::UNDEFINED 175587604951014                       # Cumulative time (in ticks) in various power states
system.mem_ctrls1.bytes_read::cpu.inst            128                       # Number of bytes read from this memory
system.mem_ctrls1.bytes_read::cpu.data             64                       # Number of bytes read from this memory
system.mem_ctrls1.bytes_read::switch_cpus.inst         1088                       # Number of bytes read from this memory
system.mem_ctrls1.bytes_read::switch_cpus.data   1948800320                       # Number of bytes read from this memory
system.mem_ctrls1.bytes_read::switch_cpus_1.inst          320                       # Number of bytes read from this memory
system.mem_ctrls1.bytes_read::switch_cpus_1.data    389013120                       # Number of bytes read from this memory
system.mem_ctrls1.bytes_read::total        2337815040                       # Number of bytes read from this memory
system.mem_ctrls1.bytes_inst_read::cpu.inst          128                       # Number of instructions bytes read from this memory
system.mem_ctrls1.bytes_inst_read::switch_cpus.inst         1088                       # Number of instructions bytes read from this memory
system.mem_ctrls1.bytes_inst_read::switch_cpus_1.inst          320                       # Number of instructions bytes read from this memory
system.mem_ctrls1.bytes_inst_read::total         1536                       # Number of instructions bytes read from this memory
system.mem_ctrls1.bytes_written::writebacks      3713216                       # Number of bytes written to this memory
system.mem_ctrls1.bytes_written::total        3713216                       # Number of bytes written to this memory
system.mem_ctrls1.num_reads::cpu.inst               2                       # Number of read requests responded to by this memory
system.mem_ctrls1.num_reads::cpu.data               1                       # Number of read requests responded to by this memory
system.mem_ctrls1.num_reads::switch_cpus.inst           17                       # Number of read requests responded to by this memory
system.mem_ctrls1.num_reads::switch_cpus.data     30450005                       # Number of read requests responded to by this memory
system.mem_ctrls1.num_reads::switch_cpus_1.inst            5                       # Number of read requests responded to by this memory
system.mem_ctrls1.num_reads::switch_cpus_1.data      6078330                       # Number of read requests responded to by this memory
system.mem_ctrls1.num_reads::total           36528360                       # Number of read requests responded to by this memory
system.mem_ctrls1.num_writes::writebacks        58019                       # Number of write requests responded to by this memory
system.mem_ctrls1.num_writes::total             58019                       # Number of write requests responded to by this memory
system.mem_ctrls1.bw_read::cpu.inst                 9                       # Total read bandwidth from this memory (bytes/s)
system.mem_ctrls1.bw_read::cpu.data                 5                       # Total read bandwidth from this memory (bytes/s)
system.mem_ctrls1.bw_read::switch_cpus.inst           81                       # Total read bandwidth from this memory (bytes/s)
system.mem_ctrls1.bw_read::switch_cpus.data    144297627                       # Total read bandwidth from this memory (bytes/s)
system.mem_ctrls1.bw_read::switch_cpus_1.inst           24                       # Total read bandwidth from this memory (bytes/s)
system.mem_ctrls1.bw_read::switch_cpus_1.data     28804218                       # Total read bandwidth from this memory (bytes/s)
system.mem_ctrls1.bw_read::total            173101964                       # Total read bandwidth from this memory (bytes/s)
system.mem_ctrls1.bw_inst_read::cpu.inst            9                       # Instruction read bandwidth from this memory (bytes/s)
system.mem_ctrls1.bw_inst_read::switch_cpus.inst           81                       # Instruction read bandwidth from this memory (bytes/s)
system.mem_ctrls1.bw_inst_read::switch_cpus_1.inst           24                       # Instruction read bandwidth from this memory (bytes/s)
system.mem_ctrls1.bw_inst_read::total             114                       # Instruction read bandwidth from this memory (bytes/s)
system.mem_ctrls1.bw_write::writebacks         274943                       # Write bandwidth from this memory (bytes/s)
system.mem_ctrls1.bw_write::total              274943                       # Write bandwidth from this memory (bytes/s)
system.mem_ctrls1.bw_total::writebacks         274943                       # Total bandwidth to/from this memory (bytes/s)
system.mem_ctrls1.bw_total::cpu.inst                9                       # Total bandwidth to/from this memory (bytes/s)
system.mem_ctrls1.bw_total::cpu.data                5                       # Total bandwidth to/from this memory (bytes/s)
system.mem_ctrls1.bw_total::switch_cpus.inst           81                       # Total bandwidth to/from this memory (bytes/s)
system.mem_ctrls1.bw_total::switch_cpus.data    144297627                       # Total bandwidth to/from this memory (bytes/s)
system.mem_ctrls1.bw_total::switch_cpus_1.inst           24                       # Total bandwidth to/from this memory (bytes/s)
system.mem_ctrls1.bw_total::switch_cpus_1.data     28804218                       # Total bandwidth to/from this memory (bytes/s)
system.mem_ctrls1.bw_total::total           173376907                       # Total bandwidth to/from this memory (bytes/s)
system.mem_ctrls1.readReqs                   36528360                       # Number of read requests accepted
system.mem_ctrls1.writeReqs                     58019                       # Number of write requests accepted
system.mem_ctrls1.readBursts                 36528360                       # Number of DRAM read bursts, including those serviced by the write queue
system.mem_ctrls1.writeBursts                   58019                       # Number of DRAM write bursts, including those merged in the write queue
system.mem_ctrls1.bytesReadDRAM            2337407616                       # Total number of bytes read from DRAM
system.mem_ctrls1.bytesReadWrQ                 407424                       # Total number of bytes read from write queue
system.mem_ctrls1.bytesWritten                3695936                       # Total number of bytes written to DRAM
system.mem_ctrls1.bytesReadSys             2337815040                       # Total read bytes from the system interface side
system.mem_ctrls1.bytesWrittenSys             3713216                       # Total written bytes from the system interface side
system.mem_ctrls1.servicedByWrQ                  6366                       # Number of DRAM read bursts serviced by the write queue
system.mem_ctrls1.mergedWrBursts                  242                       # Number of DRAM write bursts merged with an existing one
system.mem_ctrls1.neitherReadNorWriteReqs            0                       # Number of requests that are neither read nor write
system.mem_ctrls1.perBankRdBursts::0          2280734                       # Per bank write bursts
system.mem_ctrls1.perBankRdBursts::1          2284803                       # Per bank write bursts
system.mem_ctrls1.perBankRdBursts::2          2310923                       # Per bank write bursts
system.mem_ctrls1.perBankRdBursts::3          2291717                       # Per bank write bursts
system.mem_ctrls1.perBankRdBursts::4          2291762                       # Per bank write bursts
system.mem_ctrls1.perBankRdBursts::5          2282152                       # Per bank write bursts
system.mem_ctrls1.perBankRdBursts::6          2278860                       # Per bank write bursts
system.mem_ctrls1.perBankRdBursts::7          2277858                       # Per bank write bursts
system.mem_ctrls1.perBankRdBursts::8          2299231                       # Per bank write bursts
system.mem_ctrls1.perBankRdBursts::9          2274992                       # Per bank write bursts
system.mem_ctrls1.perBankRdBursts::10         2286730                       # Per bank write bursts
system.mem_ctrls1.perBankRdBursts::11         2283956                       # Per bank write bursts
system.mem_ctrls1.perBankRdBursts::12         2272842                       # Per bank write bursts
system.mem_ctrls1.perBankRdBursts::13         2265886                       # Per bank write bursts
system.mem_ctrls1.perBankRdBursts::14         2273267                       # Per bank write bursts
system.mem_ctrls1.perBankRdBursts::15         2266281                       # Per bank write bursts
system.mem_ctrls1.perBankWrBursts::0             3368                       # Per bank write bursts
system.mem_ctrls1.perBankWrBursts::1             3345                       # Per bank write bursts
system.mem_ctrls1.perBankWrBursts::2             3293                       # Per bank write bursts
system.mem_ctrls1.perBankWrBursts::3             4605                       # Per bank write bursts
system.mem_ctrls1.perBankWrBursts::4             4811                       # Per bank write bursts
system.mem_ctrls1.perBankWrBursts::5             3423                       # Per bank write bursts
system.mem_ctrls1.perBankWrBursts::6             3403                       # Per bank write bursts
system.mem_ctrls1.perBankWrBursts::7             3540                       # Per bank write bursts
system.mem_ctrls1.perBankWrBursts::8             3642                       # Per bank write bursts
system.mem_ctrls1.perBankWrBursts::9             3469                       # Per bank write bursts
system.mem_ctrls1.perBankWrBursts::10            3517                       # Per bank write bursts
system.mem_ctrls1.perBankWrBursts::11            3548                       # Per bank write bursts
system.mem_ctrls1.perBankWrBursts::12            3461                       # Per bank write bursts
system.mem_ctrls1.perBankWrBursts::13            3524                       # Per bank write bursts
system.mem_ctrls1.perBankWrBursts::14            3374                       # Per bank write bursts
system.mem_ctrls1.perBankWrBursts::15            3426                       # Per bank write bursts
system.mem_ctrls1.numRdRetry                        0                       # Number of times read queue was full causing retry
system.mem_ctrls1.numWrRetry                        0                       # Number of times write queue was full causing retry
system.mem_ctrls1.totGap                 13505421618774                       # Total gap between requests
system.mem_ctrls1.readPktSize::0                    0                       # Read request sizes (log2)
system.mem_ctrls1.readPktSize::1                    0                       # Read request sizes (log2)
system.mem_ctrls1.readPktSize::2                    0                       # Read request sizes (log2)
system.mem_ctrls1.readPktSize::3                    0                       # Read request sizes (log2)
system.mem_ctrls1.readPktSize::4                    0                       # Read request sizes (log2)
system.mem_ctrls1.readPktSize::5                    0                       # Read request sizes (log2)
system.mem_ctrls1.readPktSize::6             36528360                       # Read request sizes (log2)
system.mem_ctrls1.writePktSize::0                   0                       # Write request sizes (log2)
system.mem_ctrls1.writePktSize::1                   0                       # Write request sizes (log2)
system.mem_ctrls1.writePktSize::2                   0                       # Write request sizes (log2)
system.mem_ctrls1.writePktSize::3                   0                       # Write request sizes (log2)
system.mem_ctrls1.writePktSize::4                   0                       # Write request sizes (log2)
system.mem_ctrls1.writePktSize::5                   0                       # Write request sizes (log2)
system.mem_ctrls1.writePktSize::6               58019                       # Write request sizes (log2)
system.mem_ctrls1.rdQLenPdf::0               36520896                       # What read queue length does an incoming req see
system.mem_ctrls1.rdQLenPdf::1                   1072                       # What read queue length does an incoming req see
system.mem_ctrls1.rdQLenPdf::2                     26                       # What read queue length does an incoming req see
system.mem_ctrls1.rdQLenPdf::3                      0                       # What read queue length does an incoming req see
system.mem_ctrls1.rdQLenPdf::4                      0                       # What read queue length does an incoming req see
system.mem_ctrls1.rdQLenPdf::5                      0                       # What read queue length does an incoming req see
system.mem_ctrls1.rdQLenPdf::6                      0                       # What read queue length does an incoming req see
system.mem_ctrls1.rdQLenPdf::7                      0                       # What read queue length does an incoming req see
system.mem_ctrls1.rdQLenPdf::8                      0                       # What read queue length does an incoming req see
system.mem_ctrls1.rdQLenPdf::9                      0                       # What read queue length does an incoming req see
system.mem_ctrls1.rdQLenPdf::10                     0                       # What read queue length does an incoming req see
system.mem_ctrls1.rdQLenPdf::11                     0                       # What read queue length does an incoming req see
system.mem_ctrls1.rdQLenPdf::12                     0                       # What read queue length does an incoming req see
system.mem_ctrls1.rdQLenPdf::13                     0                       # What read queue length does an incoming req see
system.mem_ctrls1.rdQLenPdf::14                     0                       # What read queue length does an incoming req see
system.mem_ctrls1.rdQLenPdf::15                     0                       # What read queue length does an incoming req see
system.mem_ctrls1.rdQLenPdf::16                     0                       # What read queue length does an incoming req see
system.mem_ctrls1.rdQLenPdf::17                     0                       # What read queue length does an incoming req see
system.mem_ctrls1.rdQLenPdf::18                     0                       # What read queue length does an incoming req see
system.mem_ctrls1.rdQLenPdf::19                     0                       # What read queue length does an incoming req see
system.mem_ctrls1.rdQLenPdf::20                     0                       # What read queue length does an incoming req see
system.mem_ctrls1.rdQLenPdf::21                     0                       # What read queue length does an incoming req see
system.mem_ctrls1.rdQLenPdf::22                     0                       # What read queue length does an incoming req see
system.mem_ctrls1.rdQLenPdf::23                     0                       # What read queue length does an incoming req see
system.mem_ctrls1.rdQLenPdf::24                     0                       # What read queue length does an incoming req see
system.mem_ctrls1.rdQLenPdf::25                     0                       # What read queue length does an incoming req see
system.mem_ctrls1.rdQLenPdf::26                     0                       # What read queue length does an incoming req see
system.mem_ctrls1.rdQLenPdf::27                     0                       # What read queue length does an incoming req see
system.mem_ctrls1.rdQLenPdf::28                     0                       # What read queue length does an incoming req see
system.mem_ctrls1.rdQLenPdf::29                     0                       # What read queue length does an incoming req see
system.mem_ctrls1.rdQLenPdf::30                     0                       # What read queue length does an incoming req see
system.mem_ctrls1.rdQLenPdf::31                     0                       # What read queue length does an incoming req see
system.mem_ctrls1.wrQLenPdf::0                      2                       # What write queue length does an incoming req see
system.mem_ctrls1.wrQLenPdf::1                      2                       # What write queue length does an incoming req see
system.mem_ctrls1.wrQLenPdf::2                      2                       # What write queue length does an incoming req see
system.mem_ctrls1.wrQLenPdf::3                      2                       # What write queue length does an incoming req see
system.mem_ctrls1.wrQLenPdf::4                      2                       # What write queue length does an incoming req see
system.mem_ctrls1.wrQLenPdf::5                      2                       # What write queue length does an incoming req see
system.mem_ctrls1.wrQLenPdf::6                      2                       # What write queue length does an incoming req see
system.mem_ctrls1.wrQLenPdf::7                      2                       # What write queue length does an incoming req see
system.mem_ctrls1.wrQLenPdf::8                      2                       # What write queue length does an incoming req see
system.mem_ctrls1.wrQLenPdf::9                      2                       # What write queue length does an incoming req see
system.mem_ctrls1.wrQLenPdf::10                     2                       # What write queue length does an incoming req see
system.mem_ctrls1.wrQLenPdf::11                     2                       # What write queue length does an incoming req see
system.mem_ctrls1.wrQLenPdf::12                     2                       # What write queue length does an incoming req see
system.mem_ctrls1.wrQLenPdf::13                     2                       # What write queue length does an incoming req see
system.mem_ctrls1.wrQLenPdf::14                     2                       # What write queue length does an incoming req see
system.mem_ctrls1.wrQLenPdf::15                  2186                       # What write queue length does an incoming req see
system.mem_ctrls1.wrQLenPdf::16                  2251                       # What write queue length does an incoming req see
system.mem_ctrls1.wrQLenPdf::17                  3330                       # What write queue length does an incoming req see
system.mem_ctrls1.wrQLenPdf::18                  3333                       # What write queue length does an incoming req see
system.mem_ctrls1.wrQLenPdf::19                  3335                       # What write queue length does an incoming req see
system.mem_ctrls1.wrQLenPdf::20                  3332                       # What write queue length does an incoming req see
system.mem_ctrls1.wrQLenPdf::21                  3332                       # What write queue length does an incoming req see
system.mem_ctrls1.wrQLenPdf::22                  3332                       # What write queue length does an incoming req see
system.mem_ctrls1.wrQLenPdf::23                  3331                       # What write queue length does an incoming req see
system.mem_ctrls1.wrQLenPdf::24                  3332                       # What write queue length does an incoming req see
system.mem_ctrls1.wrQLenPdf::25                  3339                       # What write queue length does an incoming req see
system.mem_ctrls1.wrQLenPdf::26                  3333                       # What write queue length does an incoming req see
system.mem_ctrls1.wrQLenPdf::27                  3331                       # What write queue length does an incoming req see
system.mem_ctrls1.wrQLenPdf::28                  3330                       # What write queue length does an incoming req see
system.mem_ctrls1.wrQLenPdf::29                  3330                       # What write queue length does an incoming req see
system.mem_ctrls1.wrQLenPdf::30                  3330                       # What write queue length does an incoming req see
system.mem_ctrls1.wrQLenPdf::31                  3330                       # What write queue length does an incoming req see
system.mem_ctrls1.wrQLenPdf::32                  3330                       # What write queue length does an incoming req see
system.mem_ctrls1.wrQLenPdf::33                     0                       # What write queue length does an incoming req see
system.mem_ctrls1.wrQLenPdf::34                     0                       # What write queue length does an incoming req see
system.mem_ctrls1.wrQLenPdf::35                     0                       # What write queue length does an incoming req see
system.mem_ctrls1.wrQLenPdf::36                     0                       # What write queue length does an incoming req see
system.mem_ctrls1.wrQLenPdf::37                     0                       # What write queue length does an incoming req see
system.mem_ctrls1.wrQLenPdf::38                     0                       # What write queue length does an incoming req see
system.mem_ctrls1.wrQLenPdf::39                     0                       # What write queue length does an incoming req see
system.mem_ctrls1.wrQLenPdf::40                     0                       # What write queue length does an incoming req see
system.mem_ctrls1.wrQLenPdf::41                     0                       # What write queue length does an incoming req see
system.mem_ctrls1.wrQLenPdf::42                     0                       # What write queue length does an incoming req see
system.mem_ctrls1.wrQLenPdf::43                     0                       # What write queue length does an incoming req see
system.mem_ctrls1.wrQLenPdf::44                     0                       # What write queue length does an incoming req see
system.mem_ctrls1.wrQLenPdf::45                     0                       # What write queue length does an incoming req see
system.mem_ctrls1.wrQLenPdf::46                     0                       # What write queue length does an incoming req see
system.mem_ctrls1.wrQLenPdf::47                     0                       # What write queue length does an incoming req see
system.mem_ctrls1.wrQLenPdf::48                     0                       # What write queue length does an incoming req see
system.mem_ctrls1.wrQLenPdf::49                     0                       # What write queue length does an incoming req see
system.mem_ctrls1.wrQLenPdf::50                     0                       # What write queue length does an incoming req see
system.mem_ctrls1.wrQLenPdf::51                     0                       # What write queue length does an incoming req see
system.mem_ctrls1.wrQLenPdf::52                     0                       # What write queue length does an incoming req see
system.mem_ctrls1.wrQLenPdf::53                     0                       # What write queue length does an incoming req see
system.mem_ctrls1.wrQLenPdf::54                     0                       # What write queue length does an incoming req see
system.mem_ctrls1.wrQLenPdf::55                     0                       # What write queue length does an incoming req see
system.mem_ctrls1.wrQLenPdf::56                     0                       # What write queue length does an incoming req see
system.mem_ctrls1.wrQLenPdf::57                     0                       # What write queue length does an incoming req see
system.mem_ctrls1.wrQLenPdf::58                     0                       # What write queue length does an incoming req see
system.mem_ctrls1.wrQLenPdf::59                     0                       # What write queue length does an incoming req see
system.mem_ctrls1.wrQLenPdf::60                     0                       # What write queue length does an incoming req see
system.mem_ctrls1.wrQLenPdf::61                     0                       # What write queue length does an incoming req see
system.mem_ctrls1.wrQLenPdf::62                     0                       # What write queue length does an incoming req see
system.mem_ctrls1.wrQLenPdf::63                     0                       # What write queue length does an incoming req see
system.mem_ctrls1.bytesPerActivate::samples     36505698                       # Bytes accessed per row activation
system.mem_ctrls1.bytesPerActivate::mean    64.129798                       # Bytes accessed per row activation
system.mem_ctrls1.bytesPerActivate::gmean    64.076768                       # Bytes accessed per row activation
system.mem_ctrls1.bytesPerActivate::stdev     4.205632                       # Bytes accessed per row activation
system.mem_ctrls1.bytesPerActivate::0-127     36452132     99.85%     99.85% # Bytes accessed per row activation
system.mem_ctrls1.bytesPerActivate::128-255        48936      0.13%     99.99% # Bytes accessed per row activation
system.mem_ctrls1.bytesPerActivate::256-383         3425      0.01%    100.00% # Bytes accessed per row activation
system.mem_ctrls1.bytesPerActivate::384-511          830      0.00%    100.00% # Bytes accessed per row activation
system.mem_ctrls1.bytesPerActivate::512-639          227      0.00%    100.00% # Bytes accessed per row activation
system.mem_ctrls1.bytesPerActivate::640-767           98      0.00%    100.00% # Bytes accessed per row activation
system.mem_ctrls1.bytesPerActivate::768-895           37      0.00%    100.00% # Bytes accessed per row activation
system.mem_ctrls1.bytesPerActivate::896-1023           11      0.00%    100.00% # Bytes accessed per row activation
system.mem_ctrls1.bytesPerActivate::1024-1151            2      0.00%    100.00% # Bytes accessed per row activation
system.mem_ctrls1.bytesPerActivate::total     36505698                       # Bytes accessed per row activation
system.mem_ctrls1.rdPerTurnAround::samples         3331                       # Reads before turning the bus around for writes
system.mem_ctrls1.rdPerTurnAround::mean  10929.033023                       # Reads before turning the bus around for writes
system.mem_ctrls1.rdPerTurnAround::gmean   250.641482                       # Reads before turning the bus around for writes
system.mem_ctrls1.rdPerTurnAround::stdev 84107.094178                       # Reads before turning the bus around for writes
system.mem_ctrls1.rdPerTurnAround::0-65535         3253     97.66%     97.66% # Reads before turning the bus around for writes
system.mem_ctrls1.rdPerTurnAround::65536-131071           23      0.69%     98.35% # Reads before turning the bus around for writes
system.mem_ctrls1.rdPerTurnAround::131072-196607           14      0.42%     98.77% # Reads before turning the bus around for writes
system.mem_ctrls1.rdPerTurnAround::196608-262143            6      0.18%     98.95% # Reads before turning the bus around for writes
system.mem_ctrls1.rdPerTurnAround::262144-327679            9      0.27%     99.22% # Reads before turning the bus around for writes
system.mem_ctrls1.rdPerTurnAround::327680-393215            5      0.15%     99.37% # Reads before turning the bus around for writes
system.mem_ctrls1.rdPerTurnAround::393216-458751            2      0.06%     99.43% # Reads before turning the bus around for writes
system.mem_ctrls1.rdPerTurnAround::458752-524287            4      0.12%     99.55% # Reads before turning the bus around for writes
system.mem_ctrls1.rdPerTurnAround::589824-655359            1      0.03%     99.58% # Reads before turning the bus around for writes
system.mem_ctrls1.rdPerTurnAround::655360-720895            1      0.03%     99.61% # Reads before turning the bus around for writes
system.mem_ctrls1.rdPerTurnAround::720896-786431            2      0.06%     99.67% # Reads before turning the bus around for writes
system.mem_ctrls1.rdPerTurnAround::786432-851967            2      0.06%     99.73% # Reads before turning the bus around for writes
system.mem_ctrls1.rdPerTurnAround::851968-917503            2      0.06%     99.79% # Reads before turning the bus around for writes
system.mem_ctrls1.rdPerTurnAround::1.04858e+06-1.11411e+06            2      0.06%     99.85% # Reads before turning the bus around for writes
system.mem_ctrls1.rdPerTurnAround::1.11411e+06-1.17965e+06            1      0.03%     99.88% # Reads before turning the bus around for writes
system.mem_ctrls1.rdPerTurnAround::1.24518e+06-1.31072e+06            1      0.03%     99.91% # Reads before turning the bus around for writes
system.mem_ctrls1.rdPerTurnAround::1.31072e+06-1.37626e+06            1      0.03%     99.94% # Reads before turning the bus around for writes
system.mem_ctrls1.rdPerTurnAround::1.90054e+06-1.96608e+06            1      0.03%     99.97% # Reads before turning the bus around for writes
system.mem_ctrls1.rdPerTurnAround::2.03162e+06-2.09715e+06            1      0.03%    100.00% # Reads before turning the bus around for writes
system.mem_ctrls1.rdPerTurnAround::total         3331                       # Reads before turning the bus around for writes
system.mem_ctrls1.wrPerTurnAround::samples         3331                       # Writes before turning the bus around for reads
system.mem_ctrls1.wrPerTurnAround::mean     17.336836                       # Writes before turning the bus around for reads
system.mem_ctrls1.wrPerTurnAround::gmean    17.310516                       # Writes before turning the bus around for reads
system.mem_ctrls1.wrPerTurnAround::stdev     0.944093                       # Writes before turning the bus around for reads
system.mem_ctrls1.wrPerTurnAround::16            1083     32.51%     32.51% # Writes before turning the bus around for reads
system.mem_ctrls1.wrPerTurnAround::17              62      1.86%     34.37% # Writes before turning the bus around for reads
system.mem_ctrls1.wrPerTurnAround::18            2171     65.18%     99.55% # Writes before turning the bus around for reads
system.mem_ctrls1.wrPerTurnAround::19              14      0.42%     99.97% # Writes before turning the bus around for reads
system.mem_ctrls1.wrPerTurnAround::23               1      0.03%    100.00% # Writes before turning the bus around for reads
system.mem_ctrls1.wrPerTurnAround::total         3331                       # Writes before turning the bus around for reads
system.mem_ctrls1.totQLat                1098018103011                       # Total ticks spent queuing
system.mem_ctrls1.totMemAccLat           1782805490511                       # Total ticks spent from burst creation until serviced by the DRAM
system.mem_ctrls1.totBusLat              182609970000                       # Total ticks spent in databus transfers
system.mem_ctrls1.avgQLat                    30064.57                       # Average queueing delay per DRAM burst
system.mem_ctrls1.avgBusLat                   5000.00                       # Average bus latency per DRAM burst
system.mem_ctrls1.avgMemAccLat               48814.57                       # Average memory access latency per DRAM burst
system.mem_ctrls1.avgRdBW                      173.07                       # Average DRAM read bandwidth in MiByte/s
system.mem_ctrls1.avgWrBW                        0.27                       # Average achieved write bandwidth in MiByte/s
system.mem_ctrls1.avgRdBWSys                   173.10                       # Average system read bandwidth in MiByte/s
system.mem_ctrls1.avgWrBWSys                     0.27                       # Average system write bandwidth in MiByte/s
system.mem_ctrls1.peakBW                     12800.00                       # Theoretical peak bandwidth in MiByte/s
system.mem_ctrls1.busUtil                        1.35                       # Data bus utilization in percentage
system.mem_ctrls1.busUtilRead                    1.35                       # Data bus utilization in percentage for reads
system.mem_ctrls1.busUtilWrite                   0.00                       # Data bus utilization in percentage for writes
system.mem_ctrls1.avgRdQLen                      1.00                       # Average read queue length when enqueuing
system.mem_ctrls1.avgWrQLen                     24.43                       # Average write queue length when enqueuing
system.mem_ctrls1.readRowHits                   65024                       # Number of row buffer hits during reads
system.mem_ctrls1.writeRowHits                   9013                       # Number of row buffer hits during writes
system.mem_ctrls1.readRowHitRate                 0.18                       # Row buffer hit rate for reads
system.mem_ctrls1.writeRowHitRate               15.60                       # Row buffer hit rate for writes
system.mem_ctrls1.avgGap                    369137.97                       # Average gap between requests
system.mem_ctrls1.pageHitRate                    0.20                       # Row buffer hit rate, read and write combined
system.mem_ctrls1_0.actEnergy            130596112080                       # Energy for activate commands per rank (pJ)
system.mem_ctrls1_0.preEnergy             69413464560                       # Energy for precharge commands per rank (pJ)
system.mem_ctrls1_0.readEnergy           130653496260                       # Energy for read commands per rank (pJ)
system.mem_ctrls1_0.writeEnergy             155493360                       # Energy for write commands per rank (pJ)
system.mem_ctrls1_0.refreshEnergy        1066129343760.000244                       # Energy for refresh commands per rank (pJ)
system.mem_ctrls1_0.actBackEnergy        557125701270                       # Energy for active background per rank (pJ)
system.mem_ctrls1_0.preBackEnergy         24091419840                       # Energy for precharge background per rank (pJ)
system.mem_ctrls1_0.actPowerDownEnergy   5261366200260                       # Energy for active power-down per rank (pJ)
system.mem_ctrls1_0.prePowerDownEnergy   262100998560                       # Energy for precharge power-down per rank (pJ)
system.mem_ctrls1_0.selfRefreshEnergy       110494470                       # Energy for self refresh per rank (pJ)
system.mem_ctrls1_0.totalEnergy          7501742851830                       # Total energy per rank (pJ)
system.mem_ctrls1_0.averagePower           555.461575                       # Core power per rank (mW)
system.mem_ctrls1_0.totalIdleTime        12221415613269                       # Total Idle time Per DRAM Rank
system.mem_ctrls1_0.memoryStateTime::IDLE  10221647062                       # Time in different power states
system.mem_ctrls1_0.memoryStateTime::REF 450985832000                       # Time in different power states
system.mem_ctrls1_0.memoryStateTime::SREF    278080852                       # Time in different power states
system.mem_ctrls1_0.memoryStateTime::PRE_PDN 682338082550                       # Time in different power states
system.mem_ctrls1_0.memoryStateTime::ACT 822797305544                       # Time in different power states
system.mem_ctrls1_0.memoryStateTime::ACT_PDN 11538800840506                       # Time in different power states
system.mem_ctrls1_1.actEnergy            130054628760                       # Energy for activate commands per rank (pJ)
system.mem_ctrls1_1.preEnergy             69125659350                       # Energy for precharge commands per rank (pJ)
system.mem_ctrls1_1.readEnergy           130113540900                       # Energy for read commands per rank (pJ)
system.mem_ctrls1_1.writeEnergy             145956420                       # Energy for write commands per rank (pJ)
system.mem_ctrls1_1.refreshEnergy        1066128729120.000244                       # Energy for refresh commands per rank (pJ)
system.mem_ctrls1_1.actBackEnergy        555439670340                       # Energy for active background per rank (pJ)
system.mem_ctrls1_1.preBackEnergy         24090465120                       # Energy for precharge background per rank (pJ)
system.mem_ctrls1_1.actPowerDownEnergy   5252308660860                       # Energy for active power-down per rank (pJ)
system.mem_ctrls1_1.prePowerDownEnergy   271139117760                       # Energy for precharge power-down per rank (pJ)
system.mem_ctrls1_1.selfRefreshEnergy       117881850                       # Energy for self refresh per rank (pJ)
system.mem_ctrls1_1.totalEnergy          7498664426490                       # Total energy per rank (pJ)
system.mem_ctrls1_1.averagePower           555.233635                       # Core power per rank (mW)
system.mem_ctrls1_1.totalIdleTime        12225160713172                       # Total Idle time Per DRAM Rank
system.mem_ctrls1_1.memoryStateTime::IDLE  10225067362                       # Time in different power states
system.mem_ctrls1_1.memoryStateTime::REF 450985602000                       # Time in different power states
system.mem_ctrls1_1.memoryStateTime::SREF    304290760                       # Time in different power states
system.mem_ctrls1_1.memoryStateTime::PRE_PDN 706421443482                       # Time in different power states
system.mem_ctrls1_1.memoryStateTime::ACT 819050289635                       # Time in different power states
system.mem_ctrls1_1.memoryStateTime::ACT_PDN 11518435095275                       # Time in different power states
system.pwrStateResidencyTicks::UNDEFINED 175587604951014                       # Cumulative time (in ticks) in various power states
system.cpu.branchPred.lookups                      15                       # Number of BP lookups
system.cpu.branchPred.condPredicted                15                       # Number of conditional branches predicted
system.cpu.branchPred.condIncorrect                 4                       # Number of conditional branches incorrect
system.cpu.branchPred.BTBLookups                    0                       # Number of BTB lookups
system.cpu.branchPred.BTBHits                       0                       # Number of BTB hits
system.cpu.branchPred.BTBCorrect                    0                       # Number of correct BTB predictions (this stat may not work properly.
system.cpu.branchPred.BTBHitPct                   nan                       # BTB Hit Percentage
system.cpu.branchPred.usedRAS                       0                       # Number of times the RAS was used to get a target.
system.cpu.branchPred.RASInCorrect                  0                       # Number of incorrect RAS predictions.
system.cpu.branchPred.indirectLookups               0                       # Number of indirect predictor lookups.
system.cpu.branchPred.indirectHits                  0                       # Number of indirect target hits.
system.cpu.branchPred.indirectMisses                0                       # Number of indirect misses.
system.cpu.branchPredindirectMispredicted            0                       # Number of mispredicted indirect branches.
system.cpu_voltage_domain.voltage                   1                       # Voltage in Volts
system.cpu_clk_domain.clock                       333                       # Clock period in ticks
system.cpu.dtb.fetch_hits                           0                       # ITB hits
system.cpu.dtb.fetch_misses                         0                       # ITB misses
system.cpu.dtb.fetch_acv                            0                       # ITB acv
system.cpu.dtb.fetch_accesses                       0                       # ITB accesses
system.cpu.dtb.read_hits                            1                       # DTB read hits
system.cpu.dtb.read_misses                         15                       # DTB read misses
system.cpu.dtb.read_acv                             0                       # DTB read access violations
system.cpu.dtb.read_accesses                       16                       # DTB read accesses
system.cpu.dtb.write_hits                           0                       # DTB write hits
system.cpu.dtb.write_misses                         0                       # DTB write misses
system.cpu.dtb.write_acv                            0                       # DTB write access violations
system.cpu.dtb.write_accesses                       0                       # DTB write accesses
system.cpu.dtb.data_hits                            1                       # DTB hits
system.cpu.dtb.data_misses                         15                       # DTB misses
system.cpu.dtb.data_acv                             0                       # DTB access violations
system.cpu.dtb.data_accesses                       16                       # DTB accesses
system.cpu.itb.fetch_hits                          14                       # ITB hits
system.cpu.itb.fetch_misses                         0                       # ITB misses
system.cpu.itb.fetch_acv                            0                       # ITB acv
system.cpu.itb.fetch_accesses                      14                       # ITB accesses
system.cpu.itb.read_hits                            0                       # DTB read hits
system.cpu.itb.read_misses                          0                       # DTB read misses
system.cpu.itb.read_acv                             0                       # DTB read access violations
system.cpu.itb.read_accesses                        0                       # DTB read accesses
system.cpu.itb.write_hits                           0                       # DTB write hits
system.cpu.itb.write_misses                         0                       # DTB write misses
system.cpu.itb.write_acv                            0                       # DTB write access violations
system.cpu.itb.write_accesses                       0                       # DTB write accesses
system.cpu.itb.data_hits                            0                       # DTB hits
system.cpu.itb.data_misses                          0                       # DTB misses
system.cpu.itb.data_acv                             0                       # DTB access violations
system.cpu.itb.data_accesses                        0                       # DTB accesses
system.cpu.workload.num_syscalls                    0                       # Number of system calls
system.cpu.pwrStateResidencyTicks::ON    13505421788514                       # Cumulative time (in ticks) in various power states
system.cpu.numCycles                              769                       # number of cpu cycles simulated
[...]
system.switch_cpus_1.iq.FU_type_0::total   1853084466                       # Type of FU issued
system.switch_cpus_1.iq.rate                 0.257844                       # Inst issue rate
system.switch_cpus_1.iq.fu_busy_cnt              4436                       # FU busy when requested
system.switch_cpus_1.iq.fu_busy_rate         0.000002                       # FU busy rate (busy events/executed inst)
system.switch_cpus_1.iq.int_inst_queue_reads  10893017281                       # Number of integer instruction queue reads
system.switch_cpus_1.iq.int_inst_queue_writes   6295260568                       # Number of integer instruction queue writes
system.switch_cpus_1.iq.int_inst_queue_wakeup_accesses   1164746008                       # Number of integer instruction queue wakeup accesses
system.switch_cpus_1.iq.fp_inst_queue_reads            0                       # Number of floating instruction queue reads
system.switch_cpus_1.iq.fp_inst_queue_writes            0                       # Number of floating instruction queue writes
system.switch_cpus_1.iq.fp_inst_queue_wakeup_accesses            0                       # Number of floating instruction queue wakeup accesses
system.switch_cpus_1.iq.int_alu_accesses   1853088902                       # Number of integer alu accesses
system.switch_cpus_1.iq.fp_alu_accesses             0                       # Number of floating point alu accesses
system.switch_cpus_1.iew.lsq.thread0.forwLoads          967                       # Number of loads that had data forwarded from stores
system.switch_cpus_1.iew.lsq.thread0.invAddrLoads            0                       # Number of loads ignored due to an invalid address
system.switch_cpus_1.iew.lsq.thread0.squashedLoads   1003998818                       # Number of loads squashed
system.switch_cpus_1.iew.lsq.thread0.ignoredResponses           23                       # Number of memory responses ignored because the instruction is squashed
system.switch_cpus_1.iew.lsq.thread0.memOrderViolation           42                       # Number of memory ordering violations
system.switch_cpus_1.iew.lsq.thread0.squashedStores       136260                       # Number of stores squashed
system.switch_cpus_1.iew.lsq.thread0.invAddrSwpfs            0                       # Number of software prefetches ignored due to an invalid address
system.switch_cpus_1.iew.lsq.thread0.blockedLoads            0                       # Number of blocked loads due to partial load-store forwarding
system.switch_cpus_1.iew.lsq.thread0.rescheduledLoads            0                       # Number of loads that were rescheduled
system.switch_cpus_1.iew.lsq.thread0.cacheBlocked         7524                       # Number of times an access to memory failed due to the cache being blocked
system.switch_cpus_1.iew.iewIdleCycles              0                       # Number of cycles IEW is idle
system.switch_cpus_1.iew.iewSquashCycles     33186809                       # Number of cycles IEW is squashing
system.switch_cpus_1.iew.iewBlockCycles    6050640831                       # Number of cycles IEW is blocking
system.switch_cpus_1.iew.iewUnblockCycles     40719578                       # Number of cycles IEW is unblocking
system.switch_cpus_1.iew.iewDispatchedInsts   3247648941                       # Number of instructions dispatched to IQ
system.switch_cpus_1.iew.iewDispSquashedInsts         4487                       # Number of squashed instructions skipped by dispatch
system.switch_cpus_1.iew.iewDispLoadInsts   1068252999                       # Number of dispatched load instructions
system.switch_cpus_1.iew.iewDispStoreInsts       148587                       # Number of dispatched store instructions
system.switch_cpus_1.iew.iewDispNonSpecInsts            0                       # Number of dispatched non-speculative instructions
system.switch_cpus_1.iew.iewIQFullEvents     19171368                       # Number of times the IQ has become full, causing a stall
system.switch_cpus_1.iew.iewLSQFullEvents      3685524                       # Number of times the LSQ has become full, causing a stall
system.switch_cpus_1.iew.memOrderViolationEvents           42                       # Number of memory order violations
system.switch_cpus_1.iew.predictedTakenIncorrect      1685565                       # Number of branches that were predicted taken incorrectly
system.switch_cpus_1.iew.predictedNotTakenIncorrect      2826037                       # Number of branches that were predicted not taken incorrectly
system.switch_cpus_1.iew.branchMispredicts      4511602                       # Number of branch mispredicts detected at execute
system.switch_cpus_1.iew.iewExecutedInsts   1848898471                       # Number of executed instructions
system.switch_cpus_1.iew.iewExecLoadInsts    748485115                       # Number of load instructions executed
system.switch_cpus_1.iew.iewExecSquashedInsts      4185993                       # Number of squashed instructions skipped in execute
system.switch_cpus_1.iew.exec_swp                   0                       # number of swp insts executed
system.switch_cpus_1.iew.exec_nop               18629                       # number of nop insts executed
system.switch_cpus_1.iew.exec_refs          748507568                       # number of memory reference insts executed
system.switch_cpus_1.iew.exec_branches      219696179                       # Number of branches executed
system.switch_cpus_1.iew.exec_stores            22453                       # Number of stores executed
system.switch_cpus_1.iew.exec_rate           0.257262                       # Inst execution rate
system.switch_cpus_1.iew.wb_sent           1847983728                       # cumulative count of insts sent to commit
system.switch_cpus_1.iew.wb_count          1164746008                       # cumulative count of insts written-back
system.switch_cpus_1.iew.wb_producers       670510012                       # num instructions producing a value
system.switch_cpus_1.iew.wb_consumers       923384507                       # num instructions consuming a value
system.switch_cpus_1.iew.wb_rate             0.162066                       # insts written-back per cycle
system.switch_cpus_1.iew.wb_fanout           0.726144                       # average fanout of values written-back
system.switch_cpus_1.commit.commitSquashedInsts   2815847874                       # The number of squashed insts skipped by commit
system.switch_cpus_1.commit.branchMispredicts      4333926                       # The number of times a branch was mispredicted
system.switch_cpus_1.commit.committed_per_cycle::samples   6822268112                       # Number of insts commited each cycle
system.switch_cpus_1.commit.committed_per_cycle::mean     0.029316                       # Number of insts commited each cycle
system.switch_cpus_1.commit.committed_per_cycle::stdev     0.320685                       # Number of insts commited each cycle
system.switch_cpus_1.commit.committed_per_cycle::underflows            0      0.00%      0.00% # Number of insts commited each cycle
system.switch_cpus_1.commit.committed_per_cycle::0   6719938367     98.50%     98.50% # Number of insts commited each cycle
system.switch_cpus_1.commit.committed_per_cycle::1     55554286      0.81%     99.31% # Number of insts commited each cycle
system.switch_cpus_1.commit.committed_per_cycle::2     32104129      0.47%     99.78% # Number of insts commited each cycle
system.switch_cpus_1.commit.committed_per_cycle::3      6061851      0.09%     99.87% # Number of insts commited each cycle
system.switch_cpus_1.commit.committed_per_cycle::4      1675189      0.02%     99.90% # Number of insts commited each cycle
system.switch_cpus_1.commit.committed_per_cycle::5        24913      0.00%     99.90% # Number of insts commited each cycle
system.switch_cpus_1.commit.committed_per_cycle::6         3201      0.00%     99.90% # Number of insts commited each cycle
system.switch_cpus_1.commit.committed_per_cycle::7        40303      0.00%     99.90% # Number of insts commited each cycle
system.switch_cpus_1.commit.committed_per_cycle::8      6865873      0.10%    100.00% # Number of insts commited each cycle
system.switch_cpus_1.commit.committed_per_cycle::overflows            0      0.00%    100.00% # Number of insts commited each cycle
system.switch_cpus_1.commit.committed_per_cycle::min_value            0                       # Number of insts commited each cycle
system.switch_cpus_1.commit.committed_per_cycle::max_value            8                       # Number of insts commited each cycle
system.switch_cpus_1.commit.committed_per_cycle::total   6822268112                       # Number of insts commited each cycle
system.switch_cpus_1.commit.committedInsts    200001729                       # Number of instructions committed
system.switch_cpus_1.commit.committedOps    200001729                       # Number of ops (including micro ops) committed
system.switch_cpus_1.commit.swp_count               0                       # Number of s/w prefetches committed
system.switch_cpus_1.commit.refs             64266478                       # Number of memory references committed
system.switch_cpus_1.commit.loads            64254151                       # Number of loads committed
system.switch_cpus_1.commit.membars                 0                       # Number of memory barriers committed
system.switch_cpus_1.commit.branches         49624817                       # Number of branches committed
system.switch_cpus_1.commit.fp_insts                0                       # Number of committed floating point instructions.
system.switch_cpus_1.commit.int_insts       199961763                       # Number of committed integer instructions.
system.switch_cpus_1.commit.function_calls          438                       # Number of function calls committed.
system.switch_cpus_1.commit.op_class_0::No_OpClass         1722      0.00%      0.00% # Class of committed instruction
system.switch_cpus_1.commit.op_class_0::IntAlu    135733506     67.87%     67.87% # Class of committed instruction
system.switch_cpus_1.commit.op_class_0::IntMult           23      0.00%     67.87% # Class of committed instruction
system.switch_cpus_1.commit.op_class_0::IntDiv            0      0.00%     67.87% # Class of committed instruction
system.switch_cpus_1.commit.op_class_0::FloatAdd            0      0.00%     67.87% # Class of committed instruction
system.switch_cpus_1.commit.op_class_0::FloatCmp            0      0.00%     67.87% # Class of committed instruction
system.switch_cpus_1.commit.op_class_0::FloatCvt            0      0.00%     67.87% # Class of committed instruction
system.switch_cpus_1.commit.op_class_0::FloatMult            0      0.00%     67.87% # Class of committed instruction
system.switch_cpus_1.commit.op_class_0::FloatMultAcc            0      0.00%     67.87% # Class of committed instruction
system.switch_cpus_1.commit.op_class_0::FloatDiv            0      0.00%     67.87% # Class of committed instruction
system.switch_cpus_1.commit.op_class_0::FloatMisc            0      0.00%     67.87% # Class of committed instruction
system.switch_cpus_1.commit.op_class_0::FloatSqrt            0      0.00%     67.87% # Class of committed instruction
system.switch_cpus_1.commit.op_class_0::SimdAdd            0      0.00%     67.87% # Class of committed instruction
system.switch_cpus_1.commit.op_class_0::SimdAddAcc            0      0.00%     67.87% # Class of committed instruction
system.switch_cpus_1.commit.op_class_0::SimdAlu            0      0.00%     67.87% # Class of committed instruction
system.switch_cpus_1.commit.op_class_0::SimdCmp            0      0.00%     67.87% # Class of committed instruction
system.switch_cpus_1.commit.op_class_0::SimdCvt            0      0.00%     67.87% # Class of committed instruction
system.switch_cpus_1.commit.op_class_0::SimdMisc            0      0.00%     67.87% # Class of committed instruction
system.switch_cpus_1.commit.op_class_0::SimdMult            0      0.00%     67.87% # Class of committed instruction
system.switch_cpus_1.commit.op_class_0::SimdMultAcc            0      0.00%     67.87% # Class of committed instruction
system.switch_cpus_1.commit.op_class_0::SimdShift            0      0.00%     67.87% # Class of committed instruction
system.switch_cpus_1.commit.op_class_0::SimdShiftAcc            0      0.00%     67.87% # Class of committed instruction
system.switch_cpus_1.commit.op_class_0::SimdSqrt            0      0.00%     67.87% # Class of committed instruction
system.switch_cpus_1.commit.op_class_0::SimdFloatAdd            0      0.00%     67.87% # Class of committed instruction
system.switch_cpus_1.commit.op_class_0::SimdFloatAlu            0      0.00%     67.87% # Class of committed instruction
system.switch_cpus_1.commit.op_class_0::SimdFloatCmp            0      0.00%     67.87% # Class of committed instruction
system.switch_cpus_1.commit.op_class_0::SimdFloatCvt            0      0.00%     67.87% # Class of committed instruction
system.switch_cpus_1.commit.op_class_0::SimdFloatDiv            0      0.00%     67.87% # Class of committed instruction
system.switch_cpus_1.commit.op_class_0::SimdFloatMisc            0      0.00%     67.87% # Class of committed instruction
system.switch_cpus_1.commit.op_class_0::SimdFloatMult            0      0.00%     67.87% # Class of committed instruction
system.switch_cpus_1.commit.op_class_0::SimdFloatMultAcc            0      0.00%     67.87% # Class of committed instruction
system.switch_cpus_1.commit.op_class_0::SimdFloatSqrt            0      0.00%     67.87% # Class of committed instruction
system.switch_cpus_1.commit.op_class_0::MemRead     64254151     32.13%     99.99% # Class of committed instruction
system.switch_cpus_1.commit.op_class_0::MemWrite        12327      0.01%    100.00% # Class of committed instruction
system.switch_cpus_1.commit.op_class_0::FloatMemRead            0      0.00%    100.00% # Class of committed instruction
system.switch_cpus_1.commit.op_class_0::FloatMemWrite            0      0.00%    100.00% # Class of committed instruction
system.switch_cpus_1.commit.op_class_0::IprAccess            0      0.00%    100.00% # Class of committed instruction
system.switch_cpus_1.commit.op_class_0::InstPrefetch            0      0.00%    100.00% # Class of committed instruction
system.switch_cpus_1.commit.op_class_0::total    200001729                       # Class of committed instruction
system.switch_cpus_1.commit.bw_lim_events      6865873                       # number cycles where commit BW limit reached
system.switch_cpus_1.rob.rob_reads         9456164831                       # The number of ROB reads
system.switch_cpus_1.rob.rob_writes        6396274606                       # The number of ROB writes
system.switch_cpus_1.timesIdled                     9                       # Number of times that the entire CPU went into an idle state and unscheduled itself
system.switch_cpus_1.idleCycles                  1029                       # Total number of cycles that the CPU has spent unscheduled due to idling
system.switch_cpus_1.committedInsts         200000007                       # Number of Instructions Simulated
system.switch_cpus_1.committedOps           200000007                       # Number of Ops (including micro ops) Simulated
system.switch_cpus_1.cpi                    35.934220                       # CPI: Cycles Per Instruction
system.switch_cpus_1.cpi_total              35.934220                       # CPI: Total CPI of All Threads
system.switch_cpus_1.ipc                     0.027829                       # IPC: Instructions Per Cycle
system.switch_cpus_1.ipc_total               0.027829                       # IPC: Total IPC of All Threads
system.switch_cpus_1.int_regfile_reads     2717074424                       # number of integer regfile reads
system.switch_cpus_1.int_regfile_writes     945056809                       # number of integer regfile writes
system.switch_cpus_1.fp_regfile_writes             32                       # number of floating regfile writes
system.tol3bus.snoop_filter.tot_requests    284833150                       # Total number of requests made to the snoop filter.
system.tol3bus.snoop_filter.hit_single_requests    142414635                       # Number of requests hitting in the snoop filter with a single holder of the requested data.
system.tol3bus.snoop_filter.hit_multi_requests            0                       # Number of requests hitting in the snoop filter with multiple (>1) holders of the requested data.
system.tol3bus.snoop_filter.tot_snoops         202471                       # Total number of snoops made to the snoop filter.
system.tol3bus.snoop_filter.hit_single_snoops       202471                       # Number of snoops hitting in the snoop filter with a single holder of the requested data.
system.tol3bus.snoop_filter.hit_multi_snoops            0                       # Number of snoops hitting in the snoop filter with multiple (>1) holders of the requested data.
system.tol3bus.pwrStateResidencyTicks::UNDEFINED 175587604951014                       # Cumulative time (in ticks) in various power states
system.tol3bus.trans_dist::ReadResp         142404656                       # Transaction distribution
system.tol3bus.trans_dist::WritebackDirty      4031864                       # Transaction distribution
system.tol3bus.trans_dist::CleanEvict       211373378                       # Transaction distribution
system.tol3bus.trans_dist::ReadExReq            13859                       # Transaction distribution
system.tol3bus.trans_dist::ReadExResp           13859                       # Transaction distribution
system.tol3bus.trans_dist::ReadSharedReq    142404656                       # Transaction distribution
system.tol3bus.pkt_count_system.cpu.l2.mem_side::system.l3.cpu_side    427251665                       # Packet count per connected master and slave (bytes)
system.tol3bus.pkt_size_system.cpu.l2.mem_side::system.l3.cpu_side   9365425856                       # Cumulative packet size per connected master and slave (bytes)
system.tol3bus.snoops                        72990607                       # Total snoops (count)
system.tol3bus.snoopTraffic                   7398400                       # Total snoop traffic (bytes)
system.tol3bus.snoop_fanout::samples        215409122                       # Request fanout histogram
system.tol3bus.snoop_fanout::mean            0.000940                       # Request fanout histogram
system.tol3bus.snoop_fanout::stdev           0.030644                       # Request fanout histogram
system.tol3bus.snoop_fanout::underflows             0      0.00%      0.00% # Request fanout histogram
system.tol3bus.snoop_fanout::0              215206651     99.91%     99.91% # Request fanout histogram
system.tol3bus.snoop_fanout::1                 202471      0.09%    100.00% # Request fanout histogram
system.tol3bus.snoop_fanout::overflows              0      0.00%    100.00% # Request fanout histogram
system.tol3bus.snoop_fanout::min_value              0                       # Request fanout histogram
system.tol3bus.snoop_fanout::max_value              1                       # Request fanout histogram
system.tol3bus.snoop_fanout::total          215409122                       # Request fanout histogram
system.tol3bus.reqLayer0.occupancy        96153554862                       # Layer occupancy (ticks)
system.tol3bus.reqLayer0.utilization              0.7                       # Layer utilization (%)
system.tol3bus.respLayer0.occupancy       94850730990                       # Layer occupancy (ticks)
system.tol3bus.respLayer0.utilization             0.7                       # Layer utilization (%)

---------- End Simulation Statistics   ----------
