
---------- Begin Simulation Statistics ----------
sim_seconds                                  1.130933                       # Number of seconds simulated
sim_ticks                                1130932594008                       # Number of ticks simulated
final_tick                               111457151348265                       # Number of ticks from beginning of simulation (restored from checkpoints and never reset)
sim_freq                                 1000000000000                       # Frequency of simulated ticks
host_inst_rate                                 531277                       # Simulator instruction rate (inst/s)
host_op_rate                                   531277                       # Simulator op (including micro ops) rate (op/s)
host_tick_rate                              400559082                       # Simulator tick rate (ticks/s)
host_mem_usage                                2385072                       # Number of bytes of host memory used
host_seconds                                  2823.39                       # Real time elapsed on the host
sim_insts                                  1500000005                       # Number of instructions simulated
sim_ops                                    1500000005                       # Number of ops (including micro ops) simulated
system.voltage_domain.voltage                       1                       # Voltage in Volts
system.clk_domain.clock                          1000                       # Clock period in ticks
system.mem_ctrls0.pwrStateResidencyTicks::UNDEFINED 111457151348265                       # Cumulative time (in ticks) in various power states
system.mem_ctrls0.bytes_read::cpu.inst            128                       # Number of bytes read from this memory
system.mem_ctrls0.bytes_read::cpu.data            192                       # Number of bytes read from this memory
system.mem_ctrls0.bytes_read::switch_cpus.inst        16768                       # Number of bytes read from this memory
system.mem_ctrls0.bytes_read::switch_cpus.data      2470016                       # Number of bytes read from this memory
system.mem_ctrls0.bytes_read::switch_cpus_1.inst         7040                       # Number of bytes read from this memory
system.mem_ctrls0.bytes_read::switch_cpus_1.data      2482496                       # Number of bytes read from this memory
system.mem_ctrls0.bytes_read::total           4976640                       # Number of bytes read from this memory
system.mem_ctrls0.bytes_inst_read::cpu.inst          128                       # Number of instructions bytes read from this memory
system.mem_ctrls0.bytes_inst_read::switch_cpus.inst        16768                       # Number of instructions bytes read from this memory
system.mem_ctrls0.bytes_inst_read::switch_cpus_1.inst         7040                       # Number of instructions bytes read from this memory
system.mem_ctrls0.bytes_inst_read::total        23936                       # Number of instructions bytes read from this memory
system.mem_ctrls0.bytes_written::writebacks      2812800                       # Number of bytes written to this memory
system.mem_ctrls0.bytes_written::total        2812800                       # Number of bytes written to this memory
system.mem_ctrls0.num_reads::cpu.inst               2                       # Number of read requests responded to by this memory
system.mem_ctrls0.num_reads::cpu.data               3                       # Number of read requests responded to by this memory
system.mem_ctrls0.num_reads::switch_cpus.inst          262                       # Number of read requests responded to by this memory
system.mem_ctrls0.num_reads::switch_cpus.data        38594                       # Number of read requests responded to by this memory
system.mem_ctrls0.num_reads::switch_cpus_1.inst          110                       # Number of read requests responded to by this memory
system.mem_ctrls0.num_reads::switch_cpus_1.data        38789                       # Number of read requests responded to by this memory
system.mem_ctrls0.num_reads::total              77760                       # Number of read requests responded to by this memory
system.mem_ctrls0.num_writes::writebacks        43950                       # Number of write requests responded to by this memory
system.mem_ctrls0.num_writes::total             43950                       # Number of write requests responded to by this memory
system.mem_ctrls0.bw_read::cpu.inst               113                       # Total read bandwidth from this memory (bytes/s)
system.mem_ctrls0.bw_read::cpu.data               170                       # Total read bandwidth from this memory (bytes/s)
system.mem_ctrls0.bw_read::switch_cpus.inst        14827                       # Total read bandwidth from this memory (bytes/s)
system.mem_ctrls0.bw_read::switch_cpus.data      2184052                       # Total read bandwidth from this memory (bytes/s)
system.mem_ctrls0.bw_read::switch_cpus_1.inst         6225                       # Total read bandwidth from this memory (bytes/s)
system.mem_ctrls0.bw_read::switch_cpus_1.data      2195087                       # Total read bandwidth from this memory (bytes/s)
system.mem_ctrls0.bw_read::total              4400474                       # Total read bandwidth from this memory (bytes/s)
system.mem_ctrls0.bw_inst_read::cpu.inst          113                       # Instruction read bandwidth from this memory (bytes/s)
system.mem_ctrls0.bw_inst_read::switch_cpus.inst        14827                       # Instruction read bandwidth from this memory (bytes/s)
system.mem_ctrls0.bw_inst_read::switch_cpus_1.inst         6225                       # Instruction read bandwidth from this memory (bytes/s)
system.mem_ctrls0.bw_inst_read::total           21165                       # Instruction read bandwidth from this memory (bytes/s)
system.mem_ctrls0.bw_write::writebacks        2487151                       # Write bandwidth from this memory (bytes/s)
system.mem_ctrls0.bw_write::total             2487151                       # Write bandwidth from this memory (bytes/s)
system.mem_ctrls0.bw_total::writebacks        2487151                       # Total bandwidth to/from this memory (bytes/s)
system.mem_ctrls0.bw_total::cpu.inst              113                       # Total bandwidth to/from this memory (bytes/s)
system.mem_ctrls0.bw_total::cpu.data              170                       # Total bandwidth to/from this memory (bytes/s)
system.mem_ctrls0.bw_total::switch_cpus.inst        14827                       # Total bandwidth to/from this memory (bytes/s)
system.mem_ctrls0.bw_total::switch_cpus.data      2184052                       # Total bandwidth to/from this memory (bytes/s)
system.mem_ctrls0.bw_total::switch_cpus_1.inst         6225                       # Total bandwidth to/from this memory (bytes/s)
system.mem_ctrls0.bw_total::switch_cpus_1.data      2195087                       # Total bandwidth to/from this memory (bytes/s)
system.mem_ctrls0.bw_total::total             6887625                       # Total bandwidth to/from this memory (bytes/s)
system.mem_ctrls0.readReqs                      77760                       # Number of read requests accepted
system.mem_ctrls0.writeReqs                     43950                       # Number of write requests accepted
system.mem_ctrls0.readBursts                    77760                       # Number of DRAM read bursts, including those serviced by the write queue
system.mem_ctrls0.writeBursts                   43950                       # Number of DRAM write bursts, including those merged in the write queue
system.mem_ctrls0.bytesReadDRAM               4974144                       # Total number of bytes read from DRAM
system.mem_ctrls0.bytesReadWrQ                   2496                       # Total number of bytes read from write queue
system.mem_ctrls0.bytesWritten                2810752                       # Total number of bytes written to DRAM
system.mem_ctrls0.bytesReadSys                4976640                       # Total read bytes from the system interface side
system.mem_ctrls0.bytesWrittenSys             2812800                       # Total written bytes from the system interface side
system.mem_ctrls0.servicedByWrQ                    39                       # Number of DRAM read bursts serviced by the write queue
system.mem_ctrls0.mergedWrBursts                    0                       # Number of DRAM write bursts merged with an existing one
system.mem_ctrls0.neitherReadNorWriteReqs            0                       # Number of requests that are neither read nor write
system.mem_ctrls0.perBankRdBursts::0             4904                       # Per bank write bursts
system.mem_ctrls0.perBankRdBursts::1             4184                       # Per bank write bursts
system.mem_ctrls0.perBankRdBursts::2             4654                       # Per bank write bursts
system.mem_ctrls0.perBankRdBursts::3             5737                       # Per bank write bursts
system.mem_ctrls0.perBankRdBursts::4             5464                       # Per bank write bursts
system.mem_ctrls0.perBankRdBursts::5             4817                       # Per bank write bursts
system.mem_ctrls0.perBankRdBursts::6             4336                       # Per bank write bursts
system.mem_ctrls0.perBankRdBursts::7             4998                       # Per bank write bursts
system.mem_ctrls0.perBankRdBursts::8             4839                       # Per bank write bursts
system.mem_ctrls0.perBankRdBursts::9             4256                       # Per bank write bursts
system.mem_ctrls0.perBankRdBursts::10            5057                       # Per bank write bursts
system.mem_ctrls0.perBankRdBursts::11            5267                       # Per bank write bursts
system.mem_ctrls0.perBankRdBursts::12            5433                       # Per bank write bursts
system.mem_ctrls0.perBankRdBursts::13            4680                       # Per bank write bursts
system.mem_ctrls0.perBankRdBursts::14            4368                       # Per bank write bursts
system.mem_ctrls0.perBankRdBursts::15            4727                       # Per bank write bursts
system.mem_ctrls0.perBankWrBursts::0             2813                       # Per bank write bursts
system.mem_ctrls0.perBankWrBursts::1             1987                       # Per bank write bursts
system.mem_ctrls0.perBankWrBursts::2             2601                       # Per bank write bursts
system.mem_ctrls0.perBankWrBursts::3             3492                       # Per bank write bursts
system.mem_ctrls0.perBankWrBursts::4             3418                       # Per bank write bursts
system.mem_ctrls0.perBankWrBursts::5             2795                       # Per bank write bursts
system.mem_ctrls0.perBankWrBursts::6             2142                       # Per bank write bursts
system.mem_ctrls0.perBankWrBursts::7             2804                       # Per bank write bursts
system.mem_ctrls0.perBankWrBursts::8             2698                       # Per bank write bursts
system.mem_ctrls0.perBankWrBursts::9             2208                       # Per bank write bursts
system.mem_ctrls0.perBankWrBursts::10            2896                       # Per bank write bursts
system.mem_ctrls0.perBankWrBursts::11            3247                       # Per bank write bursts
system.mem_ctrls0.perBankWrBursts::12            3280                       # Per bank write bursts
system.mem_ctrls0.perBankWrBursts::13            2516                       # Per bank write bursts
system.mem_ctrls0.perBankWrBursts::14            2292                       # Per bank write bursts
system.mem_ctrls0.perBankWrBursts::15            2729                       # Per bank write bursts
system.mem_ctrls0.numRdRetry                        0                       # Number of times read queue was full causing retry
system.mem_ctrls0.numWrRetry                        0                       # Number of times write queue was full causing retry
system.mem_ctrls0.totGap                 1130564177793                       # Total gap between requests
system.mem_ctrls0.readPktSize::0                    0                       # Read request sizes (log2)
system.mem_ctrls0.readPktSize::1                    0                       # Read request sizes (log2)
system.mem_ctrls0.readPktSize::2                    0                       # Read request sizes (log2)
system.mem_ctrls0.readPktSize::3                    0                       # Read request sizes (log2)
system.mem_ctrls0.readPktSize::4                    0                       # Read request sizes (log2)
system.mem_ctrls0.readPktSize::5                    0                       # Read request sizes (log2)
system.mem_ctrls0.readPktSize::6                77760                       # Read request sizes (log2)
system.mem_ctrls0.writePktSize::0                   0                       # Write request sizes (log2)
system.mem_ctrls0.writePktSize::1                   0                       # Write request sizes (log2)
system.mem_ctrls0.writePktSize::2                   0                       # Write request sizes (log2)
system.mem_ctrls0.writePktSize::3                   0                       # Write request sizes (log2)
system.mem_ctrls0.writePktSize::4                   0                       # Write request sizes (log2)
system.mem_ctrls0.writePktSize::5                   0                       # Write request sizes (log2)
system.mem_ctrls0.writePktSize::6               43950                       # Write request sizes (log2)
system.mem_ctrls0.rdQLenPdf::0                  70342                       # What read queue length does an incoming req see
system.mem_ctrls0.rdQLenPdf::1                   6925                       # What read queue length does an incoming req see
system.mem_ctrls0.rdQLenPdf::2                    453                       # What read queue length does an incoming req see
system.mem_ctrls0.rdQLenPdf::3                      1                       # What read queue length does an incoming req see
system.mem_ctrls0.rdQLenPdf::4                      0                       # What read queue length does an incoming req see
system.mem_ctrls0.rdQLenPdf::5                      0                       # What read queue length does an incoming req see
system.mem_ctrls0.rdQLenPdf::6                      0                       # What read queue length does an incoming req see
system.mem_ctrls0.rdQLenPdf::7                      0                       # What read queue length does an incoming req see
system.mem_ctrls0.rdQLenPdf::8                      0                       # What read queue length does an incoming req see
system.mem_ctrls0.rdQLenPdf::9                      0                       # What read queue length does an incoming req see
system.mem_ctrls0.rdQLenPdf::10                     0                       # What read queue length does an incoming req see
system.mem_ctrls0.rdQLenPdf::11                     0                       # What read queue length does an incoming req see
system.mem_ctrls0.rdQLenPdf::12                     0                       # What read queue length does an incoming req see
system.mem_ctrls0.rdQLenPdf::13                     0                       # What read queue length does an incoming req see
system.mem_ctrls0.rdQLenPdf::14                     0                       # What read queue length does an incoming req see
system.mem_ctrls0.rdQLenPdf::15                     0                       # What read queue length does an incoming req see
system.mem_ctrls0.rdQLenPdf::16                     0                       # What read queue length does an incoming req see
system.mem_ctrls0.rdQLenPdf::17                     0                       # What read queue length does an incoming req see
system.mem_ctrls0.rdQLenPdf::18                     0                       # What read queue length does an incoming req see
system.mem_ctrls0.rdQLenPdf::19                     0                       # What read queue length does an incoming req see
system.mem_ctrls0.rdQLenPdf::20                     0                       # What read queue length does an incoming req see
system.mem_ctrls0.rdQLenPdf::21                     0                       # What read queue length does an incoming req see
system.mem_ctrls0.rdQLenPdf::22                     0                       # What read queue length does an incoming req see
system.mem_ctrls0.rdQLenPdf::23                     0                       # What read queue length does an incoming req see
system.mem_ctrls0.rdQLenPdf::24                     0                       # What read queue length does an incoming req see
system.mem_ctrls0.rdQLenPdf::25                     0                       # What read queue length does an incoming req see
system.mem_ctrls0.rdQLenPdf::26                     0                       # What read queue length does an incoming req see
system.mem_ctrls0.rdQLenPdf::27                     0                       # What read queue length does an incoming req see
system.mem_ctrls0.rdQLenPdf::28                     0                       # What read queue length does an incoming req see
system.mem_ctrls0.rdQLenPdf::29                     0                       # What read queue length does an incoming req see
system.mem_ctrls0.rdQLenPdf::30                     0                       # What read queue length does an incoming req see
system.mem_ctrls0.rdQLenPdf::31                     0                       # What read queue length does an incoming req see
system.mem_ctrls0.wrQLenPdf::0                      2                       # What write queue length does an incoming req see
system.mem_ctrls0.wrQLenPdf::1                      2                       # What write queue length does an incoming req see
system.mem_ctrls0.wrQLenPdf::2                      2                       # What write queue length does an incoming req see
system.mem_ctrls0.wrQLenPdf::3                      2                       # What write queue length does an incoming req see
system.mem_ctrls0.wrQLenPdf::4                      2                       # What write queue length does an incoming req see
system.mem_ctrls0.wrQLenPdf::5                      2                       # What write queue length does an incoming req see
system.mem_ctrls0.wrQLenPdf::6                      2                       # What write queue length does an incoming req see
system.mem_ctrls0.wrQLenPdf::7                      2                       # What write queue length does an incoming req see
system.mem_ctrls0.wrQLenPdf::8                      2                       # What write queue length does an incoming req see
system.mem_ctrls0.wrQLenPdf::9                      2                       # What write queue length does an incoming req see
system.mem_ctrls0.wrQLenPdf::10                     2                       # What write queue length does an incoming req see
system.mem_ctrls0.wrQLenPdf::11                     2                       # What write queue length does an incoming req see
system.mem_ctrls0.wrQLenPdf::12                     2                       # What write queue length does an incoming req see
system.mem_ctrls0.wrQLenPdf::13                     2                       # What write queue length does an incoming req see
system.mem_ctrls0.wrQLenPdf::14                     2                       # What write queue length does an incoming req see
system.mem_ctrls0.wrQLenPdf::15                  2280                       # What write queue length does an incoming req see
system.mem_ctrls0.wrQLenPdf::16                  2325                       # What write queue length does an incoming req see
system.mem_ctrls0.wrQLenPdf::17                  2420                       # What write queue length does an incoming req see
system.mem_ctrls0.wrQLenPdf::18                  2445                       # What write queue length does an incoming req see
system.mem_ctrls0.wrQLenPdf::19                  2455                       # What write queue length does an incoming req see
system.mem_ctrls0.wrQLenPdf::20                  2462                       # What write queue length does an incoming req see
system.mem_ctrls0.wrQLenPdf::21                  2483                       # What write queue length does an incoming req see
system.mem_ctrls0.wrQLenPdf::22                  2507                       # What write queue length does an incoming req see
system.mem_ctrls0.wrQLenPdf::23                  2479                       # What write queue length does an incoming req see
system.mem_ctrls0.wrQLenPdf::24                  2448                       # What write queue length does an incoming req see
system.mem_ctrls0.wrQLenPdf::25                  2448                       # What write queue length does an incoming req see
system.mem_ctrls0.wrQLenPdf::26                  2439                       # What write queue length does an incoming req see
system.mem_ctrls0.wrQLenPdf::27                  2443                       # What write queue length does an incoming req see
system.mem_ctrls0.wrQLenPdf::28                  2442                       # What write queue length does an incoming req see
system.mem_ctrls0.wrQLenPdf::29                  2449                       # What write queue length does an incoming req see
system.mem_ctrls0.wrQLenPdf::30                  2507                       # What write queue length does an incoming req see
system.mem_ctrls0.wrQLenPdf::31                  2422                       # What write queue length does an incoming req see
system.mem_ctrls0.wrQLenPdf::32                  2421                       # What write queue length does an incoming req see
system.mem_ctrls0.wrQLenPdf::33                    32                       # What write queue length does an incoming req see
system.mem_ctrls0.wrQLenPdf::34                     9                       # What write queue length does an incoming req see
system.mem_ctrls0.wrQLenPdf::35                     3                       # What write queue length does an incoming req see
system.mem_ctrls0.wrQLenPdf::36                     1                       # What write queue length does an incoming req see
system.mem_ctrls0.wrQLenPdf::37                     0                       # What write queue length does an incoming req see
system.mem_ctrls0.wrQLenPdf::38                     0                       # What write queue length does an incoming req see
system.mem_ctrls0.wrQLenPdf::39                     0                       # What write queue length does an incoming req see
system.mem_ctrls0.wrQLenPdf::40                     0                       # What write queue length does an incoming req see
system.mem_ctrls0.wrQLenPdf::41                     0                       # What write queue length does an incoming req see
system.mem_ctrls0.wrQLenPdf::42                     0                       # What write queue length does an incoming req see
system.mem_ctrls0.wrQLenPdf::43                     0                       # What write queue length does an incoming req see
system.mem_ctrls0.wrQLenPdf::44                     0                       # What write queue length does an incoming req see
system.mem_ctrls0.wrQLenPdf::45                     0                       # What write queue length does an incoming req see
system.mem_ctrls0.wrQLenPdf::46                     0                       # What write queue length does an incoming req see
system.mem_ctrls0.wrQLenPdf::47                     0                       # What write queue length does an incoming req see
system.mem_ctrls0.wrQLenPdf::48                     0                       # What write queue length does an incoming req see
system.mem_ctrls0.wrQLenPdf::49                     0                       # What write queue length does an incoming req see
system.mem_ctrls0.wrQLenPdf::50                     0                       # What write queue length does an incoming req see
system.mem_ctrls0.wrQLenPdf::51                     0                       # What write queue length does an incoming req see
system.mem_ctrls0.wrQLenPdf::52                     0                       # What write queue length does an incoming req see
system.mem_ctrls0.wrQLenPdf::53                     0                       # What write queue length does an incoming req see
system.mem_ctrls0.wrQLenPdf::54                     0                       # What write queue length does an incoming req see
system.mem_ctrls0.wrQLenPdf::55                     0                       # What write queue length does an incoming req see
system.mem_ctrls0.wrQLenPdf::56                     0                       # What write queue length does an incoming req see
system.mem_ctrls0.wrQLenPdf::57                     0                       # What write queue length does an incoming req see
system.mem_ctrls0.wrQLenPdf::58                     0                       # What write queue length does an incoming req see
system.mem_ctrls0.wrQLenPdf::59                     0                       # What write queue length does an incoming req see
system.mem_ctrls0.wrQLenPdf::60                     0                       # What write queue length does an incoming req see
system.mem_ctrls0.wrQLenPdf::61                     0                       # What write queue length does an incoming req see
system.mem_ctrls0.wrQLenPdf::62                     0                       # What write queue length does an incoming req see
system.mem_ctrls0.wrQLenPdf::63                     0                       # What write queue length does an incoming req see
system.mem_ctrls0.bytesPerActivate::samples        51760                       # Bytes accessed per row activation
system.mem_ctrls0.bytesPerActivate::mean   150.403709                       # Bytes accessed per row activation
system.mem_ctrls0.bytesPerActivate::gmean   120.322249                       # Bytes accessed per row activation
system.mem_ctrls0.bytesPerActivate::stdev   128.264431                       # Bytes accessed per row activation
system.mem_ctrls0.bytesPerActivate::0-127        19412     37.50%     37.50% # Bytes accessed per row activation
system.mem_ctrls0.bytesPerActivate::128-255        25521     49.31%     86.81% # Bytes accessed per row activation
system.mem_ctrls0.bytesPerActivate::256-383         3206      6.19%     93.00% # Bytes accessed per row activation
system.mem_ctrls0.bytesPerActivate::384-511         1627      3.14%     96.15% # Bytes accessed per row activation
system.mem_ctrls0.bytesPerActivate::512-639          962      1.86%     98.01% # Bytes accessed per row activation
system.mem_ctrls0.bytesPerActivate::640-767          563      1.09%     99.09% # Bytes accessed per row activation
system.mem_ctrls0.bytesPerActivate::768-895          342      0.66%     99.75% # Bytes accessed per row activation
system.mem_ctrls0.bytesPerActivate::896-1023          121      0.23%     99.99% # Bytes accessed per row activation
system.mem_ctrls0.bytesPerActivate::1024-1151            6      0.01%    100.00% # Bytes accessed per row activation
system.mem_ctrls0.bytesPerActivate::total        51760                       # Bytes accessed per row activation
system.mem_ctrls0.rdPerTurnAround::samples         2421                       # Reads before turning the bus around for writes
system.mem_ctrls0.rdPerTurnAround::mean     32.097480                       # Reads before turning the bus around for writes
system.mem_ctrls0.rdPerTurnAround::stdev   649.905261                       # Reads before turning the bus around for writes
system.mem_ctrls0.rdPerTurnAround::0-1023         2420     99.96%     99.96% # Reads before turning the bus around for writes
system.mem_ctrls0.rdPerTurnAround::31744-32767            1      0.04%    100.00% # Reads before turning the bus around for writes
system.mem_ctrls0.rdPerTurnAround::total         2421                       # Reads before turning the bus around for writes
system.mem_ctrls0.wrPerTurnAround::samples         2421                       # Writes before turning the bus around for reads
system.mem_ctrls0.wrPerTurnAround::mean     18.140438                       # Writes before turning the bus around for reads
system.mem_ctrls0.wrPerTurnAround::gmean    18.126233                       # Writes before turning the bus around for reads
system.mem_ctrls0.wrPerTurnAround::stdev     0.716468                       # Writes before turning the bus around for reads
system.mem_ctrls0.wrPerTurnAround::16             111      4.58%      4.58% # Writes before turning the bus around for reads
system.mem_ctrls0.wrPerTurnAround::17              29      1.20%      5.78% # Writes before turning the bus around for reads
system.mem_ctrls0.wrPerTurnAround::18            1774     73.28%     79.06% # Writes before turning the bus around for reads
system.mem_ctrls0.wrPerTurnAround::19             443     18.30%     97.36% # Writes before turning the bus around for reads
system.mem_ctrls0.wrPerTurnAround::20              51      2.11%     99.46% # Writes before turning the bus around for reads
system.mem_ctrls0.wrPerTurnAround::21               8      0.33%     99.79% # Writes before turning the bus around for reads
system.mem_ctrls0.wrPerTurnAround::22               3      0.12%     99.92% # Writes before turning the bus around for reads
system.mem_ctrls0.wrPerTurnAround::23               2      0.08%    100.00% # Writes before turning the bus around for reads
system.mem_ctrls0.wrPerTurnAround::total         2421                       # Writes before turning the bus around for reads
system.mem_ctrls0.totQLat                  1511148148                       # Total ticks spent queuing
system.mem_ctrls0.totMemAccLat             2968416898                       # Total ticks spent from burst creation until serviced by the DRAM
system.mem_ctrls0.totBusLat                 388605000                       # Total ticks spent in databus transfers
system.mem_ctrls0.avgQLat                    19443.24                       # Average queueing delay per DRAM burst
system.mem_ctrls0.avgBusLat                   5000.00                       # Average bus latency per DRAM burst
system.mem_ctrls0.avgMemAccLat               38193.24                       # Average memory access latency per DRAM burst
system.mem_ctrls0.avgRdBW                        4.40                       # Average DRAM read bandwidth in MiByte/s
system.mem_ctrls0.avgWrBW                        2.49                       # Average achieved write bandwidth in MiByte/s
system.mem_ctrls0.avgRdBWSys                     4.40                       # Average system read bandwidth in MiByte/s
system.mem_ctrls0.avgWrBWSys                     2.49                       # Average system write bandwidth in MiByte/s
system.mem_ctrls0.peakBW                     12800.00                       # Theoretical peak bandwidth in MiByte/s
system.mem_ctrls0.busUtil                        0.05                       # Data bus utilization in percentage
system.mem_ctrls0.busUtilRead                    0.03                       # Data bus utilization in percentage for reads
system.mem_ctrls0.busUtilWrite                   0.02                       # Data bus utilization in percentage for writes
system.mem_ctrls0.avgRdQLen                      1.01                       # Average read queue length when enqueuing
system.mem_ctrls0.avgWrQLen                      1.71                       # Average write queue length when enqueuing
system.mem_ctrls0.readRowHits                   50280                       # Number of row buffer hits during reads
system.mem_ctrls0.writeRowHits                  19599                       # Number of row buffer hits during writes
system.mem_ctrls0.readRowHitRate                64.69                       # Row buffer hit rate for reads
system.mem_ctrls0.writeRowHitRate               44.59                       # Row buffer hit rate for writes
system.mem_ctrls0.avgGap                   9288999.90                       # Average gap between requests
system.mem_ctrls0.pageHitRate                   57.43                       # Row buffer hit rate, read and write combined
system.mem_ctrls0_0.actEnergy               184697520                       # Energy for activate commands per rank (pJ)
system.mem_ctrls0_0.preEnergy                98169060                       # Energy for precharge commands per rank (pJ)
system.mem_ctrls0_0.readEnergy              279131160                       # Energy for read commands per rank (pJ)
system.mem_ctrls0_0.writeEnergy             115111440                       # Energy for write commands per rank (pJ)
system.mem_ctrls0_0.refreshEnergy        5444481120.000001                       # Energy for refresh commands per rank (pJ)
system.mem_ctrls0_0.actBackEnergy          2779979490                       # Energy for active background per rank (pJ)
system.mem_ctrls0_0.preBackEnergy           150326400                       # Energy for precharge background per rank (pJ)
system.mem_ctrls0_0.actPowerDownEnergy    20711548500                       # Energy for active power-down per rank (pJ)
system.mem_ctrls0_0.prePowerDownEnergy     5516107680                       # Energy for precharge power-down per rank (pJ)
system.mem_ctrls0_0.selfRefreshEnergy    255723976815                       # Energy for self refresh per rank (pJ)
system.mem_ctrls0_0.totalEnergy          291003944625                       # Total energy per rank (pJ)
system.mem_ctrls0_0.averagePower           257.313253                       # Core power per rank (mW)
system.mem_ctrls0_0.totalIdleTime        1122662703405                       # Total Idle time Per DRAM Rank
system.mem_ctrls0_0.memoryStateTime::IDLE    152495755                       # Time in different power states
system.mem_ctrls0_0.memoryStateTime::REF   2305354000                       # Time in different power states
system.mem_ctrls0_0.memoryStateTime::SREF 1064658818508                       # Time in different power states
system.mem_ctrls0_0.memoryStateTime::PRE_PDN  14366565626                       # Time in different power states
system.mem_ctrls0_0.memoryStateTime::ACT   4029834463                       # Time in different power states
system.mem_ctrls0_0.memoryStateTime::ACT_PDN  45419525656                       # Time in different power states
system.mem_ctrls0_1.actEnergy               184868880                       # Energy for activate commands per rank (pJ)
system.mem_ctrls0_1.preEnergy                98260140                       # Energy for precharge commands per rank (pJ)
system.mem_ctrls0_1.readEnergy              275796780                       # Energy for read commands per rank (pJ)
system.mem_ctrls0_1.writeEnergy             114140520                       # Energy for write commands per rank (pJ)
system.mem_ctrls0_1.refreshEnergy        5282830800.000001                       # Energy for refresh commands per rank (pJ)
system.mem_ctrls0_1.actBackEnergy          2755258020                       # Energy for active background per rank (pJ)
system.mem_ctrls0_1.preBackEnergy           138220800                       # Energy for precharge background per rank (pJ)
system.mem_ctrls0_1.actPowerDownEnergy    20301800010                       # Energy for active power-down per rank (pJ)
system.mem_ctrls0_1.prePowerDownEnergy     5344183200                       # Energy for precharge power-down per rank (pJ)
system.mem_ctrls0_1.selfRefreshEnergy    256020811230                       # Energy for self refresh per rank (pJ)
system.mem_ctrls0_1.totalEnergy          290516819550                       # Total energy per rank (pJ)
system.mem_ctrls0_1.averagePower           256.882524                       # Core power per rank (mW)
system.mem_ctrls0_1.totalIdleTime        1121846891296                       # Total Idle time Per DRAM Rank
system.mem_ctrls0_1.memoryStateTime::IDLE    126345027                       # Time in different power states
system.mem_ctrls0_1.memoryStateTime::REF   2236476000                       # Time in different power states
system.mem_ctrls0_1.memoryStateTime::SREF 1066090331008                       # Time in different power states
system.mem_ctrls0_1.memoryStateTime::PRE_PDN  13915434538                       # Time in different power states
system.mem_ctrls0_1.memoryStateTime::ACT   4044992213                       # Time in different power states
system.mem_ctrls0_1.memoryStateTime::ACT_PDN  44519015222                       # Time in different power states
system.mem_ctrls1.pwrStateResidencyTicks::UNDEFINED 111457151348265                       # Cumulative time (in ticks) in various power states
system.mem_ctrls1.bytes_read::cpu.inst             64                       # Number of bytes read from this memory
system.mem_ctrls1.bytes_read::cpu.data             64                       # Number of bytes read from this memory
system.mem_ctrls1.bytes_read::switch_cpus.inst        16832                       # Number of bytes read from this memory
system.mem_ctrls1.bytes_read::switch_cpus.data      2466112                       # Number of bytes read from this memory
system.mem_ctrls1.bytes_read::switch_cpus_1.inst         6784                       # Number of bytes read from this memory
system.mem_ctrls1.bytes_read::switch_cpus_1.data      2488448                       # Number of bytes read from this memory
system.mem_ctrls1.bytes_read::total           4978304                       # Number of bytes read from this memory
system.mem_ctrls1.bytes_inst_read::cpu.inst           64                       # Number of instructions bytes read from this memory
system.mem_ctrls1.bytes_inst_read::switch_cpus.inst        16832                       # Number of instructions bytes read from this memory
system.mem_ctrls1.bytes_inst_read::switch_cpus_1.inst         6784                       # Number of instructions bytes read from this memory
system.mem_ctrls1.bytes_inst_read::total        23680                       # Number of instructions bytes read from this memory
system.mem_ctrls1.bytes_written::writebacks      2814464                       # Number of bytes written to this memory
system.mem_ctrls1.bytes_written::total        2814464                       # Number of bytes written to this memory
system.mem_ctrls1.num_reads::cpu.inst               1                       # Number of read requests responded to by this memory
system.mem_ctrls1.num_reads::cpu.data               1                       # Number of read requests responded to by this memory
system.mem_ctrls1.num_reads::switch_cpus.inst          263                       # Number of read requests responded to by this memory
system.mem_ctrls1.num_reads::switch_cpus.data        38533                       # Number of read requests responded to by this memory
system.mem_ctrls1.num_reads::switch_cpus_1.inst          106                       # Number of read requests responded to by this memory
system.mem_ctrls1.num_reads::switch_cpus_1.data        38882                       # Number of read requests responded to by this memory
system.mem_ctrls1.num_reads::total              77786                       # Number of read requests responded to by this memory
system.mem_ctrls1.num_writes::writebacks        43976                       # Number of write requests responded to by this memory
system.mem_ctrls1.num_writes::total             43976                       # Number of write requests responded to by this memory
system.mem_ctrls1.bw_read::cpu.inst                57                       # Total read bandwidth from this memory (bytes/s)
system.mem_ctrls1.bw_read::cpu.data                57                       # Total read bandwidth from this memory (bytes/s)
system.mem_ctrls1.bw_read::switch_cpus.inst        14883                       # Total read bandwidth from this memory (bytes/s)
system.mem_ctrls1.bw_read::switch_cpus.data      2180600                       # Total read bandwidth from this memory (bytes/s)
system.mem_ctrls1.bw_read::switch_cpus_1.inst         5999                       # Total read bandwidth from this memory (bytes/s)
system.mem_ctrls1.bw_read::switch_cpus_1.data      2200350                       # Total read bandwidth from this memory (bytes/s)
system.mem_ctrls1.bw_read::total              4401946                       # Total read bandwidth from this memory (bytes/s)
system.mem_ctrls1.bw_inst_read::cpu.inst           57                       # Instruction read bandwidth from this memory (bytes/s)
system.mem_ctrls1.bw_inst_read::switch_cpus.inst        14883                       # Instruction read bandwidth from this memory (bytes/s)
system.mem_ctrls1.bw_inst_read::switch_cpus_1.inst         5999                       # Instruction read bandwidth from this memory (bytes/s)
system.mem_ctrls1.bw_inst_read::total           20938                       # Instruction read bandwidth from this memory (bytes/s)
system.mem_ctrls1.bw_write::writebacks        2488622                       # Write bandwidth from this memory (bytes/s)
system.mem_ctrls1.bw_write::total             2488622                       # Write bandwidth from this memory (bytes/s)
system.mem_ctrls1.bw_total::writebacks        2488622                       # Total bandwidth to/from this memory (bytes/s)
system.mem_ctrls1.bw_total::cpu.inst               57                       # Total bandwidth to/from this memory (bytes/s)
system.mem_ctrls1.bw_total::cpu.data               57                       # Total bandwidth to/from this memory (bytes/s)
system.mem_ctrls1.bw_total::switch_cpus.inst        14883                       # Total bandwidth to/from this memory (bytes/s)
system.mem_ctrls1.bw_total::switch_cpus.data      2180600                       # Total bandwidth to/from this memory (bytes/s)
system.mem_ctrls1.bw_total::switch_cpus_1.inst         5999                       # Total bandwidth to/from this memory (bytes/s)
system.mem_ctrls1.bw_total::switch_cpus_1.data      2200350                       # Total bandwidth to/from this memory (bytes/s)
system.mem_ctrls1.bw_total::total             6890568                       # Total bandwidth to/from this memory (bytes/s)
system.mem_ctrls1.readReqs                      77786                       # Number of read requests accepted
system.mem_ctrls1.writeReqs                     43976                       # Number of write requests accepted
system.mem_ctrls1.readBursts                    77786                       # Number of DRAM read bursts, including those serviced by the write queue
system.mem_ctrls1.writeBursts                   43976                       # Number of DRAM write bursts, including those merged in the write queue
system.mem_ctrls1.bytesReadDRAM               4974720                       # Total number of bytes read from DRAM
system.mem_ctrls1.bytesReadWrQ                   3584                       # Total number of bytes read from write queue
system.mem_ctrls1.bytesWritten                2813440                       # Total number of bytes written to DRAM
system.mem_ctrls1.bytesReadSys                4978304                       # Total read bytes from the system interface side
system.mem_ctrls1.bytesWrittenSys             2814464                       # Total written bytes from the system interface side
system.mem_ctrls1.servicedByWrQ                    56                       # Number of DRAM read bursts serviced by the write queue
system.mem_ctrls1.mergedWrBursts                    0                       # Number of DRAM write bursts merged with an existing one
system.mem_ctrls1.neitherReadNorWriteReqs            0                       # Number of requests that are neither read nor write
system.mem_ctrls1.perBankRdBursts::0             4891                       # Per bank write bursts
system.mem_ctrls1.perBankRdBursts::1             4200                       # Per bank write bursts
system.mem_ctrls1.perBankRdBursts::2             4630                       # Per bank write bursts
system.mem_ctrls1.perBankRdBursts::3             5663                       # Per bank write bursts
system.mem_ctrls1.perBankRdBursts::4             5504                       # Per bank write bursts
system.mem_ctrls1.perBankRdBursts::5             4789                       # Per bank write bursts
system.mem_ctrls1.perBankRdBursts::6             4385                       # Per bank write bursts
system.mem_ctrls1.perBankRdBursts::7             4970                       # Per bank write bursts
system.mem_ctrls1.perBankRdBursts::8             4851                       # Per bank write bursts
system.mem_ctrls1.perBankRdBursts::9             4277                       # Per bank write bursts
system.mem_ctrls1.perBankRdBursts::10            5011                       # Per bank write bursts
system.mem_ctrls1.perBankRdBursts::11            5324                       # Per bank write bursts
system.mem_ctrls1.perBankRdBursts::12            5464                       # Per bank write bursts
system.mem_ctrls1.perBankRdBursts::13            4672                       # Per bank write bursts
system.mem_ctrls1.perBankRdBursts::14            4390                       # Per bank write bursts
system.mem_ctrls1.perBankRdBursts::15            4709                       # Per bank write bursts
system.mem_ctrls1.perBankWrBursts::0             2786                       # Per bank write bursts
system.mem_ctrls1.perBankWrBursts::1             2004                       # Per bank write bursts
system.mem_ctrls1.perBankWrBursts::2             2589                       # Per bank write bursts
system.mem_ctrls1.perBankWrBursts::3             3417                       # Per bank write bursts
system.mem_ctrls1.perBankWrBursts::4             3474                       # Per bank write bursts
system.mem_ctrls1.perBankWrBursts::5             2779                       # Per bank write bursts
system.mem_ctrls1.perBankWrBursts::6             2203                       # Per bank write bursts
system.mem_ctrls1.perBankWrBursts::7             2815                       # Per bank write bursts
system.mem_ctrls1.perBankWrBursts::8             2717                       # Per bank write bursts
system.mem_ctrls1.perBankWrBursts::9             2217                       # Per bank write bursts
system.mem_ctrls1.perBankWrBursts::10            2848                       # Per bank write bursts
system.mem_ctrls1.perBankWrBursts::11            3311                       # Per bank write bursts
system.mem_ctrls1.perBankWrBursts::12            3292                       # Per bank write bursts
system.mem_ctrls1.perBankWrBursts::13            2506                       # Per bank write bursts
system.mem_ctrls1.perBankWrBursts::14            2306                       # Per bank write bursts
system.mem_ctrls1.perBankWrBursts::15            2696                       # Per bank write bursts
system.mem_ctrls1.numRdRetry                        0                       # Number of times read queue was full causing retry
system.mem_ctrls1.numWrRetry                        0                       # Number of times write queue was full causing retry
system.mem_ctrls1.totGap                 1130271216381                       # Total gap between requests
system.mem_ctrls1.readPktSize::0                    0                       # Read request sizes (log2)
system.mem_ctrls1.readPktSize::1                    0                       # Read request sizes (log2)
system.mem_ctrls1.readPktSize::2                    0                       # Read request sizes (log2)
system.mem_ctrls1.readPktSize::3                    0                       # Read request sizes (log2)
system.mem_ctrls1.readPktSize::4                    0                       # Read request sizes (log2)
system.mem_ctrls1.readPktSize::5                    0                       # Read request sizes (log2)
system.mem_ctrls1.readPktSize::6                77786                       # Read request sizes (log2)
system.mem_ctrls1.writePktSize::0                   0                       # Write request sizes (log2)
system.mem_ctrls1.writePktSize::1                   0                       # Write request sizes (log2)
system.mem_ctrls1.writePktSize::2                   0                       # Write request sizes (log2)
system.mem_ctrls1.writePktSize::3                   0                       # Write request sizes (log2)
system.mem_ctrls1.writePktSize::4                   0                       # Write request sizes (log2)
system.mem_ctrls1.writePktSize::5                   0                       # Write request sizes (log2)
system.mem_ctrls1.writePktSize::6               43976                       # Write request sizes (log2)
system.mem_ctrls1.rdQLenPdf::0                  70348                       # What read queue length does an incoming req see
system.mem_ctrls1.rdQLenPdf::1                   6949                       # What read queue length does an incoming req see
system.mem_ctrls1.rdQLenPdf::2                    432                       # What read queue length does an incoming req see
system.mem_ctrls1.rdQLenPdf::3                      1                       # What read queue length does an incoming req see
system.mem_ctrls1.rdQLenPdf::4                      0                       # What read queue length does an incoming req see
system.mem_ctrls1.rdQLenPdf::5                      0                       # What read queue length does an incoming req see
system.mem_ctrls1.rdQLenPdf::6                      0                       # What read queue length does an incoming req see
system.mem_ctrls1.rdQLenPdf::7                      0                       # What read queue length does an incoming req see
system.mem_ctrls1.rdQLenPdf::8                      0                       # What read queue length does an incoming req see
system.mem_ctrls1.rdQLenPdf::9                      0                       # What read queue length does an incoming req see
system.mem_ctrls1.rdQLenPdf::10                     0                       # What read queue length does an incoming req see
system.mem_ctrls1.rdQLenPdf::11                     0                       # What read queue length does an incoming req see
system.mem_ctrls1.rdQLenPdf::12                     0                       # What read queue length does an incoming req see
system.mem_ctrls1.rdQLenPdf::13                     0                       # What read queue length does an incoming req see
system.mem_ctrls1.rdQLenPdf::14                     0                       # What read queue length does an incoming req see
system.mem_ctrls1.rdQLenPdf::15                     0                       # What read queue length does an incoming req see
system.mem_ctrls1.rdQLenPdf::16                     0                       # What read queue length does an incoming req see
system.mem_ctrls1.rdQLenPdf::17                     0                       # What read queue length does an incoming req see
system.mem_ctrls1.rdQLenPdf::18                     0                       # What read queue length does an incoming req see
system.mem_ctrls1.rdQLenPdf::19                     0                       # What read queue length does an incoming req see
system.mem_ctrls1.rdQLenPdf::20                     0                       # What read queue length does an incoming req see
system.mem_ctrls1.rdQLenPdf::21                     0                       # What read queue length does an incoming req see
system.mem_ctrls1.rdQLenPdf::22                     0                       # What read queue length does an incoming req see
system.mem_ctrls1.rdQLenPdf::23                     0                       # What read queue length does an incoming req see
system.mem_ctrls1.rdQLenPdf::24                     0                       # What read queue length does an incoming req see
system.mem_ctrls1.rdQLenPdf::25                     0                       # What read queue length does an incoming req see
system.mem_ctrls1.rdQLenPdf::26                     0                       # What read queue length does an incoming req see
system.mem_ctrls1.rdQLenPdf::27                     0                       # What read queue length does an incoming req see
system.mem_ctrls1.rdQLenPdf::28                     0                       # What read queue length does an incoming req see
system.mem_ctrls1.rdQLenPdf::29                     0                       # What read queue length does an incoming req see
system.mem_ctrls1.rdQLenPdf::30                     0                       # What read queue length does an incoming req see
system.mem_ctrls1.rdQLenPdf::31                     0                       # What read queue length does an incoming req see
system.mem_ctrls1.wrQLenPdf::0                      2                       # What write queue length does an incoming req see
system.mem_ctrls1.wrQLenPdf::1                      2                       # What write queue length does an incoming req see
system.mem_ctrls1.wrQLenPdf::2                      2                       # What write queue length does an incoming req see
system.mem_ctrls1.wrQLenPdf::3                      2                       # What write queue length does an incoming req see
system.mem_ctrls1.wrQLenPdf::4                      2                       # What write queue length does an incoming req see
system.mem_ctrls1.wrQLenPdf::5                      2                       # What write queue length does an incoming req see
system.mem_ctrls1.wrQLenPdf::6                      2                       # What write queue length does an incoming req see
system.mem_ctrls1.wrQLenPdf::7                      2                       # What write queue length does an incoming req see
system.mem_ctrls1.wrQLenPdf::8                      2                       # What write queue length does an incoming req see
system.mem_ctrls1.wrQLenPdf::9                      2                       # What write queue length does an incoming req see
system.mem_ctrls1.wrQLenPdf::10                     2                       # What write queue length does an incoming req see
system.mem_ctrls1.wrQLenPdf::11                     2                       # What write queue length does an incoming req see
system.mem_ctrls1.wrQLenPdf::12                     2                       # What write queue length does an incoming req see
system.mem_ctrls1.wrQLenPdf::13                     2                       # What write queue length does an incoming req see
system.mem_ctrls1.wrQLenPdf::14                     2                       # What write queue length does an incoming req see
system.mem_ctrls1.wrQLenPdf::15                  2275                       # What write queue length does an incoming req see
system.mem_ctrls1.wrQLenPdf::16                  2329                       # What write queue length does an incoming req see
system.mem_ctrls1.wrQLenPdf::17                  2430                       # What write queue length does an incoming req see
system.mem_ctrls1.wrQLenPdf::18                  2447                       # What write queue length does an incoming req see
system.mem_ctrls1.wrQLenPdf::19                  2444                       # What write queue length does an incoming req see
system.mem_ctrls1.wrQLenPdf::20                  2478                       # What write queue length does an incoming req see
system.mem_ctrls1.wrQLenPdf::21                  2487                       # What write queue length does an incoming req see
system.mem_ctrls1.wrQLenPdf::22                  2508                       # What write queue length does an incoming req see
system.mem_ctrls1.wrQLenPdf::23                  2488                       # What write queue length does an incoming req see
system.mem_ctrls1.wrQLenPdf::24                  2458                       # What write queue length does an incoming req see
system.mem_ctrls1.wrQLenPdf::25                  2440                       # What write queue length does an incoming req see
system.mem_ctrls1.wrQLenPdf::26                  2433                       # What write queue length does an incoming req see
system.mem_ctrls1.wrQLenPdf::27                  2436                       # What write queue length does an incoming req see
system.mem_ctrls1.wrQLenPdf::28                  2440                       # What write queue length does an incoming req see
system.mem_ctrls1.wrQLenPdf::29                  2453                       # What write queue length does an incoming req see
system.mem_ctrls1.wrQLenPdf::30                  2511                       # What write queue length does an incoming req see
system.mem_ctrls1.wrQLenPdf::31                  2416                       # What write queue length does an incoming req see
system.mem_ctrls1.wrQLenPdf::32                  2415                       # What write queue length does an incoming req see
system.mem_ctrls1.wrQLenPdf::33                    37                       # What write queue length does an incoming req see
system.mem_ctrls1.wrQLenPdf::34                     9                       # What write queue length does an incoming req see
system.mem_ctrls1.wrQLenPdf::35                     6                       # What write queue length does an incoming req see
system.mem_ctrls1.wrQLenPdf::36                     3                       # What write queue length does an incoming req see
system.mem_ctrls1.wrQLenPdf::37                     3                       # What write queue length does an incoming req see
system.mem_ctrls1.wrQLenPdf::38                     0                       # What write queue length does an incoming req see
system.mem_ctrls1.wrQLenPdf::39                     0                       # What write queue length does an incoming req see
system.mem_ctrls1.wrQLenPdf::40                     0                       # What write queue length does an incoming req see
system.mem_ctrls1.wrQLenPdf::41                     0                       # What write queue length does an incoming req see
system.mem_ctrls1.wrQLenPdf::42                     0                       # What write queue length does an incoming req see
system.mem_ctrls1.wrQLenPdf::43                     0                       # What write queue length does an incoming req see
system.mem_ctrls1.wrQLenPdf::44                     0                       # What write queue length does an incoming req see
system.mem_ctrls1.wrQLenPdf::45                     0                       # What write queue length does an incoming req see
system.mem_ctrls1.wrQLenPdf::46                     0                       # What write queue length does an incoming req see
system.mem_ctrls1.wrQLenPdf::47                     0                       # What write queue length does an incoming req see
system.mem_ctrls1.wrQLenPdf::48                     0                       # What write queue length does an incoming req see
system.mem_ctrls1.wrQLenPdf::49                     0                       # What write queue length does an incoming req see
system.mem_ctrls1.wrQLenPdf::50                     0                       # What write queue length does an incoming req see
system.mem_ctrls1.wrQLenPdf::51                     0                       # What write queue length does an incoming req see
system.mem_ctrls1.wrQLenPdf::52                     0                       # What write queue length does an incoming req see
system.mem_ctrls1.wrQLenPdf::53                     0                       # What write queue length does an incoming req see
system.mem_ctrls1.wrQLenPdf::54                     0                       # What write queue length does an incoming req see
system.mem_ctrls1.wrQLenPdf::55                     0                       # What write queue length does an incoming req see
system.mem_ctrls1.wrQLenPdf::56                     0                       # What write queue length does an incoming req see
system.mem_ctrls1.wrQLenPdf::57                     0                       # What write queue length does an incoming req see
system.mem_ctrls1.wrQLenPdf::58                     0                       # What write queue length does an incoming req see
system.mem_ctrls1.wrQLenPdf::59                     0                       # What write queue length does an incoming req see
system.mem_ctrls1.wrQLenPdf::60                     0                       # What write queue length does an incoming req see
system.mem_ctrls1.wrQLenPdf::61                     0                       # What write queue length does an incoming req see
system.mem_ctrls1.wrQLenPdf::62                     0                       # What write queue length does an incoming req see
system.mem_ctrls1.wrQLenPdf::63                     0                       # What write queue length does an incoming req see
system.mem_ctrls1.bytesPerActivate::samples        51984                       # Bytes accessed per row activation
system.mem_ctrls1.bytesPerActivate::mean   149.818406                       # Bytes accessed per row activation
system.mem_ctrls1.bytesPerActivate::gmean   119.769956                       # Bytes accessed per row activation
system.mem_ctrls1.bytesPerActivate::stdev   128.083184                       # Bytes accessed per row activation
system.mem_ctrls1.bytesPerActivate::0-127        19765     38.02%     38.02% # Bytes accessed per row activation
system.mem_ctrls1.bytesPerActivate::128-255        25356     48.78%     86.80% # Bytes accessed per row activation
system.mem_ctrls1.bytesPerActivate::256-383         3270      6.29%     93.09% # Bytes accessed per row activation
system.mem_ctrls1.bytesPerActivate::384-511         1614      3.10%     96.19% # Bytes accessed per row activation
system.mem_ctrls1.bytesPerActivate::512-639          941      1.81%     98.00% # Bytes accessed per row activation
system.mem_ctrls1.bytesPerActivate::640-767          570      1.10%     99.10% # Bytes accessed per row activation
system.mem_ctrls1.bytesPerActivate::768-895          351      0.68%     99.77% # Bytes accessed per row activation
system.mem_ctrls1.bytesPerActivate::896-1023          109      0.21%     99.98% # Bytes accessed per row activation
system.mem_ctrls1.bytesPerActivate::1024-1151            8      0.02%    100.00% # Bytes accessed per row activation
system.mem_ctrls1.bytesPerActivate::total        51984                       # Bytes accessed per row activation
system.mem_ctrls1.rdPerTurnAround::samples         2416                       # Reads before turning the bus around for writes
system.mem_ctrls1.rdPerTurnAround::mean     32.171772                       # Reads before turning the bus around for writes
system.mem_ctrls1.rdPerTurnAround::stdev   650.860483                       # Reads before turning the bus around for writes
system.mem_ctrls1.rdPerTurnAround::0-1023         2415     99.96%     99.96% # Reads before turning the bus around for writes
system.mem_ctrls1.rdPerTurnAround::31744-32767            1      0.04%    100.00% # Reads before turning the bus around for writes
system.mem_ctrls1.rdPerTurnAround::total         2416                       # Reads before turning the bus around for writes
system.mem_ctrls1.wrPerTurnAround::samples         2416                       # Writes before turning the bus around for reads
system.mem_ctrls1.wrPerTurnAround::mean     18.195364                       # Writes before turning the bus around for reads
system.mem_ctrls1.wrPerTurnAround::gmean    18.178221                       # Writes before turning the bus around for reads
system.mem_ctrls1.wrPerTurnAround::stdev     0.794856                       # Writes before turning the bus around for reads
system.mem_ctrls1.wrPerTurnAround::16             111      4.59%      4.59% # Writes before turning the bus around for reads
system.mem_ctrls1.wrPerTurnAround::17              26      1.08%      5.67% # Writes before turning the bus around for reads
system.mem_ctrls1.wrPerTurnAround::18            1702     70.45%     76.12% # Writes before turning the bus around for reads
system.mem_ctrls1.wrPerTurnAround::19             477     19.74%     95.86% # Writes before turning the bus around for reads
system.mem_ctrls1.wrPerTurnAround::20              74      3.06%     98.92% # Writes before turning the bus around for reads
system.mem_ctrls1.wrPerTurnAround::21              16      0.66%     99.59% # Writes before turning the bus around for reads
system.mem_ctrls1.wrPerTurnAround::22               6      0.25%     99.83% # Writes before turning the bus around for reads
system.mem_ctrls1.wrPerTurnAround::23               2      0.08%     99.92% # Writes before turning the bus around for reads
system.mem_ctrls1.wrPerTurnAround::24               1      0.04%     99.96% # Writes before turning the bus around for reads
system.mem_ctrls1.wrPerTurnAround::25               1      0.04%    100.00% # Writes before turning the bus around for reads
system.mem_ctrls1.wrPerTurnAround::total         2416                       # Writes before turning the bus around for reads
system.mem_ctrls1.totQLat                  1500174595                       # Total ticks spent queuing
system.mem_ctrls1.totMemAccLat             2957612095                       # Total ticks spent from burst creation until serviced by the DRAM
system.mem_ctrls1.totBusLat                 388650000                       # Total ticks spent in databus transfers
system.mem_ctrls1.avgQLat                    19299.81                       # Average queueing delay per DRAM burst
system.mem_ctrls1.avgBusLat                   5000.00                       # Average bus latency per DRAM burst
system.mem_ctrls1.avgMemAccLat               38049.81                       # Average memory access latency per DRAM burst
system.mem_ctrls1.avgRdBW                        4.40                       # Average DRAM read bandwidth in MiByte/s
system.mem_ctrls1.avgWrBW                        2.49                       # Average achieved write bandwidth in MiByte/s
system.mem_ctrls1.avgRdBWSys                     4.40                       # Average system read bandwidth in MiByte/s
system.mem_ctrls1.avgWrBWSys                     2.49                       # Average system write bandwidth in MiByte/s
system.mem_ctrls1.peakBW                     12800.00                       # Theoretical peak bandwidth in MiByte/s
system.mem_ctrls1.busUtil                        0.05                       # Data bus utilization in percentage
system.mem_ctrls1.busUtilRead                    0.03                       # Data bus utilization in percentage for reads
system.mem_ctrls1.busUtilWrite                   0.02                       # Data bus utilization in percentage for writes
system.mem_ctrls1.avgRdQLen                      1.00                       # Average read queue length when enqueuing
system.mem_ctrls1.avgWrQLen                      1.71                       # Average write queue length when enqueuing
system.mem_ctrls1.readRowHits                   50315                       # Number of row buffer hits during reads
system.mem_ctrls1.writeRowHits                  19391                       # Number of row buffer hits during writes
system.mem_ctrls1.readRowHitRate                64.73                       # Row buffer hit rate for reads
system.mem_ctrls1.writeRowHitRate               44.09                       # Row buffer hit rate for writes
system.mem_ctrls1.avgGap                   9282626.90                       # Average gap between requests
system.mem_ctrls1.pageHitRate                   57.27                       # Row buffer hit rate, read and write combined
system.mem_ctrls1_0.actEnergy               185511480                       # Energy for activate commands per rank (pJ)
system.mem_ctrls1_0.preEnergy                98601690                       # Energy for precharge commands per rank (pJ)
system.mem_ctrls1_0.readEnergy              278688480                       # Energy for read commands per rank (pJ)
system.mem_ctrls1_0.writeEnergy             115189740                       # Energy for write commands per rank (pJ)
system.mem_ctrls1_0.refreshEnergy        5440793280.000001                       # Energy for refresh commands per rank (pJ)
system.mem_ctrls1_0.actBackEnergy          2707160280                       # Energy for active background per rank (pJ)
system.mem_ctrls1_0.preBackEnergy           153831360                       # Energy for precharge background per rank (pJ)
system.mem_ctrls1_0.actPowerDownEnergy    20677166670                       # Energy for active power-down per rank (pJ)
system.mem_ctrls1_0.prePowerDownEnergy     5565278400                       # Energy for precharge power-down per rank (pJ)
system.mem_ctrls1_0.selfRefreshEnergy    255751400205                       # Energy for self refresh per rank (pJ)
system.mem_ctrls1_0.totalEnergy          290974236615                       # Total energy per rank (pJ)
system.mem_ctrls1_0.averagePower           257.286984                       # Core power per rank (mW)
system.mem_ctrls1_0.totalIdleTime        1123923631800                       # Total Idle time Per DRAM Rank
system.mem_ctrls1_0.memoryStateTime::IDLE    161985045                       # Time in different power states
system.mem_ctrls1_0.memoryStateTime::REF   2303842000                       # Time in different power states
system.mem_ctrls1_0.memoryStateTime::SREF 1064756287758                       # Time in different power states
system.mem_ctrls1_0.memoryStateTime::PRE_PDN  14494228748                       # Time in different power states
system.mem_ctrls1_0.memoryStateTime::ACT   3872136458                       # Time in different power states
system.mem_ctrls1_0.memoryStateTime::ACT_PDN  45344113999                       # Time in different power states
system.mem_ctrls1_1.actEnergy               185654280                       # Energy for activate commands per rank (pJ)
system.mem_ctrls1_1.preEnergy                98677590                       # Energy for precharge commands per rank (pJ)
system.mem_ctrls1_1.readEnergy              276303720                       # Energy for read commands per rank (pJ)
system.mem_ctrls1_1.writeEnergy             114281460                       # Energy for write commands per rank (pJ)
system.mem_ctrls1_1.refreshEnergy        5284060080.000001                       # Energy for refresh commands per rank (pJ)
system.mem_ctrls1_1.actBackEnergy          2768634210                       # Energy for active background per rank (pJ)
system.mem_ctrls1_1.preBackEnergy           144579360                       # Energy for precharge background per rank (pJ)
system.mem_ctrls1_1.actPowerDownEnergy    20305614450                       # Energy for active power-down per rank (pJ)
system.mem_ctrls1_1.prePowerDownEnergy     5343482880                       # Energy for precharge power-down per rank (pJ)
system.mem_ctrls1_1.selfRefreshEnergy    256005320205                       # Energy for self refresh per rank (pJ)
system.mem_ctrls1_1.totalEnergy          290526984375                       # Total energy per rank (pJ)
system.mem_ctrls1_1.averagePower           256.891512                       # Core power per rank (mW)
system.mem_ctrls1_1.totalIdleTime        1122096628847                       # Total Idle time Per DRAM Rank
system.mem_ctrls1_1.memoryStateTime::IDLE    142100100                       # Time in different power states
system.mem_ctrls1_1.memoryStateTime::REF   2236960000                       # Time in different power states
system.mem_ctrls1_1.memoryStateTime::SREF 1066038507258                       # Time in different power states
system.mem_ctrls1_1.memoryStateTime::PRE_PDN  13913876290                       # Time in different power states
system.mem_ctrls1_1.memoryStateTime::ACT   4073175801                       # Time in different power states
system.mem_ctrls1_1.memoryStateTime::ACT_PDN  44527974559                       # Time in different power states
system.pwrStateResidencyTicks::UNDEFINED 111457151348265                       # Cumulative time (in ticks) in various power states
system.cpu.branchPred.lookups                      16                       # Number of BP lookups
system.cpu.branchPred.condPredicted                16                       # Number of conditional branches predicted
system.cpu.branchPred.condIncorrect                13                       # Number of conditional branches incorrect
system.cpu.branchPred.BTBLookups                    0                       # Number of BTB lookups
system.cpu.branchPred.BTBHits                       0                       # Number of BTB hits
system.cpu.branchPred.BTBCorrect                    0                       # Number of correct BTB predictions (this stat may not work properly.
system.cpu.branchPred.BTBHitPct                   nan                       # BTB Hit Percentage
system.cpu.branchPred.usedRAS                       0                       # Number of times the RAS was used to get a target.
system.cpu.branchPred.RASInCorrect                  0                       # Number of incorrect RAS predictions.
system.cpu.branchPred.indirectLookups               0                       # Number of indirect predictor lookups.
system.cpu.branchPred.indirectHits                  0                       # Number of indirect target hits.
system.cpu.branchPred.indirectMisses                0                       # Number of indirect misses.
system.cpu.branchPredindirectMispredicted            0                       # Number of mispredicted indirect branches.
system.cpu_voltage_domain.voltage                   1                       # Voltage in Volts
system.cpu_clk_domain.clock                       333                       # Clock period in ticks
system.cpu.dtb.fetch_hits                           0                       # ITB hits
system.cpu.dtb.fetch_misses                         0                       # ITB misses
system.cpu.dtb.fetch_acv                            0                       # ITB acv
system.cpu.dtb.fetch_accesses                       0                       # ITB accesses
system.cpu.dtb.read_hits                           28                       # DTB read hits
system.cpu.dtb.read_misses                          0                       # DTB read misses
system.cpu.dtb.read_acv                             0                       # DTB read access violations
system.cpu.dtb.read_accesses                       28                       # DTB read accesses
system.cpu.dtb.write_hits                          14                       # DTB write hits
system.cpu.dtb.write_misses                         0                       # DTB write misses
system.cpu.dtb.write_acv                            0                       # DTB write access violations
system.cpu.dtb.write_accesses                      14                       # DTB write accesses
system.cpu.dtb.data_hits                           42                       # DTB hits
system.cpu.dtb.data_misses                          0                       # DTB misses
system.cpu.dtb.data_acv                             0                       # DTB access violations
system.cpu.dtb.data_accesses                       42                       # DTB accesses
system.cpu.itb.fetch_hits                          30                       # ITB hits
system.cpu.itb.fetch_misses                         0                       # ITB misses
system.cpu.itb.fetch_acv                            0                       # ITB acv
system.cpu.itb.fetch_accesses                      30                       # ITB accesses
system.cpu.itb.read_hits                            0                       # DTB read hits
system.cpu.itb.read_misses                          0                       # DTB read misses
system.cpu.itb.read_acv                             0                       # DTB read access violations
system.cpu.itb.read_accesses                        0                       # DTB read accesses
system.cpu.itb.write_hits                           0                       # DTB write hits
system.cpu.itb.write_misses                         0                       # DTB write misses
system.cpu.itb.write_acv                            0                       # DTB write access violations
system.cpu.itb.write_accesses                       0                       # DTB write accesses
system.cpu.itb.data_hits                            0                       # DTB hits
system.cpu.itb.data_misses                          0                       # DTB misses
system.cpu.itb.data_acv                             0                       # DTB access violations
system.cpu.itb.data_accesses                        0                       # DTB accesses
system.cpu.workload.num_syscalls                    8                       # Number of system calls
system.cpu.pwrStateResidencyTicks::ON    1130932594008                       # Cumulative time (in ticks) in various power states
system.cpu.numCycles                             1015                       # number of cpu cycles simulated
system.cpu.numWorkItemsStarted                      0                       # number of work items this cpu started
system.cpu.numWorkItemsCompleted                    0                       # number of work items this cpu completed
system.cpu.fetch.icacheStallCycles                176                       # Number of cycles fetch is stalled on an Icache miss
system.cpu.fetch.Insts                            176                       # Number of instructions fetch has processed
system.cpu.fetch.Branches                          16                       # Number of branches that fetch encountered
system.cpu.fetch.Cycles                            29                       # Number of cycles fetch has run and was not squashing or blocked
system.cpu.fetch.SquashCycles                      29                       # Number of cycles fetch has spent squashing
system.cpu.fetch.PendingDrainCycles                23                       # Number of cycles fetch has spent waiting on pipes to drain
system.cpu.fetch.CacheLines                        30                       # Number of cache lines fetched
system.cpu.fetch.IcacheSquashes                    15                       # Number of outstanding Icache misses that were squashed
system.cpu.fetch.rateDist::samples                242                       # Number of instructions fetched each cycle (Total)
system.cpu.fetch.rateDist::mean              0.727273                       # Number of instructions fetched each cycle (Total)
system.cpu.fetch.rateDist::stdev             2.093261                       # Number of instructions fetched each cycle (Total)
system.cpu.fetch.rateDist::underflows               0      0.00%      0.00% # Number of instructions fetched each cycle (Total)
system.cpu.fetch.rateDist::0                      213     88.02%     88.02% # Number of instructions fetched each cycle (Total)
system.cpu.fetch.rateDist::1                        0      0.00%     88.02% # Number of instructions fetched each cycle (Total)
system.cpu.fetch.rateDist::2                        0      0.00%     88.02% # Number of instructions fetched each cycle (Total)
system.cpu.fetch.rateDist::3                        0      0.00%     88.02% # Number of instructions fetched each cycle (Total)
system.cpu.fetch.rateDist::4                       14      5.79%     93.80% # Number of instructions fetched each cycle (Total)
[...]
system.switch_cpus_1.iq.int_inst_queue_writes    506979479                       # Number of integer instruction queue writes
system.switch_cpus_1.iq.int_inst_queue_wakeup_accesses    502283966                       # Number of integer instruction queue wakeup accesses
system.switch_cpus_1.iq.fp_inst_queue_reads        79914                       # Number of floating instruction queue reads
system.switch_cpus_1.iq.fp_inst_queue_writes        71417                       # Number of floating instruction queue writes
system.switch_cpus_1.iq.fp_inst_queue_wakeup_accesses        35554                       # Number of floating instruction queue wakeup accesses
system.switch_cpus_1.iq.int_alu_accesses    511518610                       # Number of integer alu accesses
system.switch_cpus_1.iq.fp_alu_accesses         40447                       # Number of floating point alu accesses
system.switch_cpus_1.iew.lsq.thread0.forwLoads      5562197                       # Number of loads that had data forwarded from stores
system.switch_cpus_1.iew.lsq.thread0.invAddrLoads            0                       # Number of loads ignored due to an invalid address
system.switch_cpus_1.iew.lsq.thread0.squashedLoads       947505                       # Number of loads squashed
system.switch_cpus_1.iew.lsq.thread0.ignoredResponses          616                       # Number of memory responses ignored because the instruction is squashed
system.switch_cpus_1.iew.lsq.thread0.memOrderViolation         9864                       # Number of memory ordering violations
system.switch_cpus_1.iew.lsq.thread0.squashedStores       368620                       # Number of stores squashed
system.switch_cpus_1.iew.lsq.thread0.invAddrSwpfs            0                       # Number of software prefetches ignored due to an invalid address
system.switch_cpus_1.iew.lsq.thread0.blockedLoads            0                       # Number of blocked loads due to partial load-store forwarding
system.switch_cpus_1.iew.lsq.thread0.rescheduledLoads          144                       # Number of loads that were rescheduled
system.switch_cpus_1.iew.lsq.thread0.cacheBlocked      1074297                       # Number of times an access to memory failed due to the cache being blocked
system.switch_cpus_1.iew.iewIdleCycles              0                       # Number of cycles IEW is idle
system.switch_cpus_1.iew.iewSquashCycles        95004                       # Number of cycles IEW is squashing
system.switch_cpus_1.iew.iewBlockCycles       1372022                       # Number of cycles IEW is blocking
system.switch_cpus_1.iew.iewUnblockCycles      8895290                       # Number of cycles IEW is unblocking
system.switch_cpus_1.iew.iewDispatchedInsts    503866981                       # Number of instructions dispatched to IQ
system.switch_cpus_1.iew.iewDispSquashedInsts         3250                       # Number of squashed instructions skipped by dispatch
system.switch_cpus_1.iew.iewDispLoadInsts    134434065                       # Number of dispatched load instructions
system.switch_cpus_1.iew.iewDispStoreInsts     55818509                       # Number of dispatched store instructions
system.switch_cpus_1.iew.iewDispNonSpecInsts         6207                       # Number of dispatched non-speculative instructions
system.switch_cpus_1.iew.iewIQFullEvents        25090                       # Number of times the IQ has become full, causing a stall
system.switch_cpus_1.iew.iewLSQFullEvents      8838048                       # Number of times the LSQ has become full, causing a stall
system.switch_cpus_1.iew.memOrderViolationEvents         9864                       # Number of memory order violations
system.switch_cpus_1.iew.predictedTakenIncorrect        32233                       # Number of branches that were predicted taken incorrectly
system.switch_cpus_1.iew.predictedNotTakenIncorrect        42675                       # Number of branches that were predicted not taken incorrectly
system.switch_cpus_1.iew.branchMispredicts        74908                       # Number of branch mispredicts detected at execute
system.switch_cpus_1.iew.iewExecutedInsts    503541526                       # Number of executed instructions
system.switch_cpus_1.iew.iewExecLoadInsts    135270086                       # Number of load instructions executed
system.switch_cpus_1.iew.iewExecSquashedInsts       172638                       # Number of squashed instructions skipped in execute
system.switch_cpus_1.iew.exec_swp                   0                       # number of swp insts executed
system.switch_cpus_1.iew.exec_nop              346349                       # number of nop insts executed
system.switch_cpus_1.iew.exec_refs          190941003                       # number of memory reference insts executed
system.switch_cpus_1.iew.exec_branches       22958073                       # Number of branches executed
system.switch_cpus_1.iew.exec_stores         55670917                       # Number of stores executed
system.switch_cpus_1.iew.exec_rate           2.579520                       # Inst execution rate
system.switch_cpus_1.iew.wb_sent            502453821                       # cumulative count of insts sent to commit
system.switch_cpus_1.iew.wb_count           502319520                       # cumulative count of insts written-back
system.switch_cpus_1.iew.wb_producers       325234089                       # num instructions producing a value
system.switch_cpus_1.iew.wb_consumers       446479131                       # num instructions consuming a value
system.switch_cpus_1.iew.wb_rate             2.573260                       # insts written-back per cycle
system.switch_cpus_1.iew.wb_fanout           0.728442                       # average fanout of values written-back
system.switch_cpus_1.commit.commitSquashedInsts      3373373                       # The number of squashed insts skipped by commit
system.switch_cpus_1.commit.commitNonSpecStalls         8731                       # The number of times commit has been forced to stall to communicate backwards
system.switch_cpus_1.commit.branchMispredicts        71102                       # The number of times a branch was mispredicted
system.switch_cpus_1.commit.committed_per_cycle::samples    194460008                       # Number of insts commited each cycle
system.switch_cpus_1.commit.committed_per_cycle::mean     2.572603                       # Number of insts commited each cycle
system.switch_cpus_1.commit.committed_per_cycle::stdev     3.386849                       # Number of insts commited each cycle
system.switch_cpus_1.commit.committed_per_cycle::underflows            0      0.00%      0.00% # Number of insts commited each cycle
system.switch_cpus_1.commit.committed_per_cycle::0     95175753     48.94%     48.94% # Number of insts commited each cycle
system.switch_cpus_1.commit.committed_per_cycle::1     28474864     14.64%     63.59% # Number of insts commited each cycle
system.switch_cpus_1.commit.committed_per_cycle::2      6252780      3.22%     66.80% # Number of insts commited each cycle
system.switch_cpus_1.commit.committed_per_cycle::3      7377233      3.79%     70.60% # Number of insts commited each cycle
system.switch_cpus_1.commit.committed_per_cycle::4      1023363      0.53%     71.12% # Number of insts commited each cycle
system.switch_cpus_1.commit.committed_per_cycle::5      4861525      2.50%     73.62% # Number of insts commited each cycle
system.switch_cpus_1.commit.committed_per_cycle::6       481784      0.25%     73.87% # Number of insts commited each cycle
system.switch_cpus_1.commit.committed_per_cycle::7       637086      0.33%     74.20% # Number of insts commited each cycle
system.switch_cpus_1.commit.committed_per_cycle::8     50175620     25.80%    100.00% # Number of insts commited each cycle
system.switch_cpus_1.commit.committed_per_cycle::overflows            0      0.00%    100.00% # Number of insts commited each cycle
system.switch_cpus_1.commit.committed_per_cycle::min_value            0                       # Number of insts commited each cycle
system.switch_cpus_1.commit.committed_per_cycle::max_value            8                       # Number of insts commited each cycle
system.switch_cpus_1.commit.committed_per_cycle::total    194460008                       # Number of insts commited each cycle
system.switch_cpus_1.commit.committedInsts    500268466                       # Number of instructions committed
system.switch_cpus_1.commit.committedOps    500268466                       # Number of ops (including micro ops) committed
system.switch_cpus_1.commit.swp_count               0                       # Number of s/w prefetches committed
system.switch_cpus_1.commit.refs            188936423                       # Number of memory references committed
system.switch_cpus_1.commit.loads           133486542                       # Number of loads committed
system.switch_cpus_1.commit.membars              4364                       # Number of memory barriers committed
system.switch_cpus_1.commit.branches         22747603                       # Number of branches committed
system.switch_cpus_1.commit.fp_insts            27203                       # Number of committed floating point instructions.
system.switch_cpus_1.commit.int_insts       499900780                       # Number of committed integer instructions.
system.switch_cpus_1.commit.function_calls        66082                       # Number of function calls committed.
system.switch_cpus_1.commit.op_class_0::No_OpClass       268466      0.05%      0.05% # Class of committed instruction
system.switch_cpus_1.commit.op_class_0::IntAlu    311039159     62.17%     62.23% # Class of committed instruction
system.switch_cpus_1.commit.op_class_0::IntMult           59      0.00%     62.23% # Class of committed instruction
system.switch_cpus_1.commit.op_class_0::IntDiv            0      0.00%     62.23% # Class of committed instruction
system.switch_cpus_1.commit.op_class_0::FloatAdd        11827      0.00%     62.23% # Class of committed instruction
system.switch_cpus_1.commit.op_class_0::FloatCmp         1936      0.00%     62.23% # Class of committed instruction
system.switch_cpus_1.commit.op_class_0::FloatCvt         1554      0.00%     62.23% # Class of committed instruction
system.switch_cpus_1.commit.op_class_0::FloatMult         4487      0.00%     62.23% # Class of committed instruction
system.switch_cpus_1.commit.op_class_0::FloatMultAcc            0      0.00%     62.23% # Class of committed instruction
system.switch_cpus_1.commit.op_class_0::FloatDiv          191      0.00%     62.23% # Class of committed instruction
system.switch_cpus_1.commit.op_class_0::FloatMisc            0      0.00%     62.23% # Class of committed instruction
system.switch_cpus_1.commit.op_class_0::FloatSqrt            0      0.00%     62.23% # Class of committed instruction
system.switch_cpus_1.commit.op_class_0::SimdAdd            0      0.00%     62.23% # Class of committed instruction
system.switch_cpus_1.commit.op_class_0::SimdAddAcc            0      0.00%     62.23% # Class of committed instruction
system.switch_cpus_1.commit.op_class_0::SimdAlu            0      0.00%     62.23% # Class of committed instruction
system.switch_cpus_1.commit.op_class_0::SimdCmp            0      0.00%     62.23% # Class of committed instruction
system.switch_cpus_1.commit.op_class_0::SimdCvt            0      0.00%     62.23% # Class of committed instruction
system.switch_cpus_1.commit.op_class_0::SimdMisc            0      0.00%     62.23% # Class of committed instruction
system.switch_cpus_1.commit.op_class_0::SimdMult            0      0.00%     62.23% # Class of committed instruction
system.switch_cpus_1.commit.op_class_0::SimdMultAcc            0      0.00%     62.23% # Class of committed instruction
system.switch_cpus_1.commit.op_class_0::SimdShift            0      0.00%     62.23% # Class of committed instruction
system.switch_cpus_1.commit.op_class_0::SimdShiftAcc            0      0.00%     62.23% # Class of committed instruction
system.switch_cpus_1.commit.op_class_0::SimdSqrt            0      0.00%     62.23% # Class of committed instruction
system.switch_cpus_1.commit.op_class_0::SimdFloatAdd            0      0.00%     62.23% # Class of committed instruction
system.switch_cpus_1.commit.op_class_0::SimdFloatAlu            0      0.00%     62.23% # Class of committed instruction
system.switch_cpus_1.commit.op_class_0::SimdFloatCmp            0      0.00%     62.23% # Class of committed instruction
system.switch_cpus_1.commit.op_class_0::SimdFloatCvt            0      0.00%     62.23% # Class of committed instruction
system.switch_cpus_1.commit.op_class_0::SimdFloatDiv            0      0.00%     62.23% # Class of committed instruction
system.switch_cpus_1.commit.op_class_0::SimdFloatMisc            0      0.00%     62.23% # Class of committed instruction
system.switch_cpus_1.commit.op_class_0::SimdFloatMult            0      0.00%     62.23% # Class of committed instruction
system.switch_cpus_1.commit.op_class_0::SimdFloatMultAcc            0      0.00%     62.23% # Class of committed instruction
system.switch_cpus_1.commit.op_class_0::SimdFloatSqrt            0      0.00%     62.23% # Class of committed instruction
system.switch_cpus_1.commit.op_class_0::MemRead    133484605     26.68%     88.91% # Class of committed instruction
system.switch_cpus_1.commit.op_class_0::MemWrite     55448974     11.08%    100.00% # Class of committed instruction
system.switch_cpus_1.commit.op_class_0::FloatMemRead         6301      0.00%    100.00% # Class of committed instruction
system.switch_cpus_1.commit.op_class_0::FloatMemWrite          907      0.00%    100.00% # Class of committed instruction
system.switch_cpus_1.commit.op_class_0::IprAccess            0      0.00%    100.00% # Class of committed instruction
system.switch_cpus_1.commit.op_class_0::InstPrefetch            0      0.00%    100.00% # Class of committed instruction
system.switch_cpus_1.commit.op_class_0::total    500268466                       # Class of committed instruction
system.switch_cpus_1.commit.bw_lim_events     50175620                       # number cycles where commit BW limit reached
system.switch_cpus_1.rob.rob_reads          647722725                       # The number of ROB reads
system.switch_cpus_1.rob.rob_writes        1007777540                       # The number of ROB writes
system.switch_cpus_1.timesIdled                  3826                       # Number of times that the entire CPU went into an idle state and unscheduled itself
system.switch_cpus_1.idleCycles                259448                       # Total number of cycles that the CPU has spent unscheduled due to idling
system.switch_cpus_1.committedInsts         500000000                       # Number of Instructions Simulated
system.switch_cpus_1.committedOps           500000000                       # Number of Ops (including micro ops) Simulated
system.switch_cpus_1.cpi                     0.390415                       # CPI: Cycles Per Instruction
system.switch_cpus_1.cpi_total               0.390415                       # CPI: Total CPI of All Threads
system.switch_cpus_1.ipc                     2.561378                       # IPC: Instructions Per Cycle
system.switch_cpus_1.ipc_total               2.561378                       # IPC: Total IPC of All Threads
system.switch_cpus_1.int_regfile_reads      808212261                       # number of integer regfile reads
system.switch_cpus_1.int_regfile_writes     423860485                       # number of integer regfile writes
system.switch_cpus_1.fp_regfile_reads           46098                       # number of floating regfile reads
system.switch_cpus_1.fp_regfile_writes          30532                       # number of floating regfile writes
system.switch_cpus_1.misc_regfile_reads         39998                       # number of misc regfile reads
system.switch_cpus_1.misc_regfile_writes         8728                       # number of misc regfile writes
system.tol3bus.snoop_filter.tot_requests      6822913                       # Total number of requests made to the snoop filter.
system.tol3bus.snoop_filter.hit_single_requests      3409143                       # Number of requests hitting in the snoop filter with a single holder of the requested data.
system.tol3bus.snoop_filter.hit_multi_requests            0                       # Number of requests hitting in the snoop filter with multiple (>1) holders of the requested data.
system.tol3bus.snoop_filter.tot_snoops            888                       # Total number of snoops made to the snoop filter.
system.tol3bus.snoop_filter.hit_single_snoops          888                       # Number of snoops hitting in the snoop filter with a single holder of the requested data.
system.tol3bus.snoop_filter.hit_multi_snoops            0                       # Number of snoops hitting in the snoop filter with multiple (>1) holders of the requested data.
system.tol3bus.pwrStateResidencyTicks::UNDEFINED 111457151348265                       # Cumulative time (in ticks) in various power states
system.tol3bus.trans_dist::ReadResp            266494                       # Transaction distribution
system.tol3bus.trans_dist::WritebackDirty      3282068                       # Transaction distribution
system.tol3bus.trans_dist::CleanEvict          217084                       # Transaction distribution
system.tol3bus.trans_dist::ReadExReq          3147276                       # Transaction distribution
system.tol3bus.trans_dist::ReadExResp         3147276                       # Transaction distribution
system.tol3bus.trans_dist::ReadSharedReq       266494                       # Transaction distribution
system.tol3bus.pkt_count_system.cpu.l2.mem_side::system.l3.cpu_side     10236683                       # Packet count per connected master and slave (bytes)
system.tol3bus.pkt_size_system.cpu.l2.mem_side::system.l3.cpu_side    422906368                       # Cumulative packet size per connected master and slave (bytes)
system.tol3bus.snoops                           90009                       # Total snoops (count)
system.tol3bus.snoopTraffic                   5627264                       # Total snoop traffic (bytes)
system.tol3bus.snoop_fanout::samples          3503779                       # Request fanout histogram
system.tol3bus.snoop_fanout::mean            0.000253                       # Request fanout histogram
system.tol3bus.snoop_fanout::stdev           0.015918                       # Request fanout histogram
system.tol3bus.snoop_fanout::underflows             0      0.00%      0.00% # Request fanout histogram
system.tol3bus.snoop_fanout::0                3502891     99.97%     99.97% # Request fanout histogram
system.tol3bus.snoop_fanout::1                    888      0.03%    100.00% # Request fanout histogram
system.tol3bus.snoop_fanout::overflows              0      0.00%    100.00% # Request fanout histogram
system.tol3bus.snoop_fanout::min_value              0                       # Request fanout histogram
system.tol3bus.snoop_fanout::max_value              1                       # Request fanout histogram
system.tol3bus.snoop_fanout::total            3503779                       # Request fanout histogram
system.tol3bus.reqLayer0.occupancy         3335679315                       # Layer occupancy (ticks)
system.tol3bus.reqLayer0.utilization              0.3                       # Layer utilization (%)
system.tol3bus.respLayer0.occupancy        2273570820                       # Layer occupancy (ticks)
system.tol3bus.respLayer0.utilization             0.2                       # Layer utilization (%)

---------- End Simulation Statistics   ----------
