
---------- Begin Simulation Statistics ----------
sim_seconds                                  2.008249                       # Number of seconds simulated
sim_ticks                                2008248541866                       # Number of ticks simulated
final_tick                               75278402342568                       # Number of ticks from beginning of simulation (restored from checkpoints and never reset)
sim_freq                                 1000000000000                       # Frequency of simulated ticks
host_inst_rate                                 344163                       # Simulator instruction rate (inst/s)
host_op_rate                                   344163                       # Simulator op (including micro ops) rate (op/s)
host_tick_rate                              575970071                       # Simulator tick rate (ticks/s)
host_mem_usage                                2404660                       # Number of bytes of host memory used
host_seconds                                  3486.72                       # Real time elapsed on the host
sim_insts                                  1200000010                       # Number of instructions simulated
sim_ops                                    1200000010                       # Number of ops (including micro ops) simulated
system.voltage_domain.voltage                       1                       # Voltage in Volts
system.clk_domain.clock                          1000                       # Clock period in ticks
system.mem_ctrls0.pwrStateResidencyTicks::UNDEFINED 75278402342568                       # Cumulative time (in ticks) in various power states
system.mem_ctrls0.bytes_read::cpu.inst            128                       # Number of bytes read from this memory
system.mem_ctrls0.bytes_read::cpu.data            192                       # Number of bytes read from this memory
system.mem_ctrls0.bytes_read::switch_cpus.inst        43968                       # Number of bytes read from this memory
system.mem_ctrls0.bytes_read::switch_cpus.data    232843968                       # Number of bytes read from this memory
system.mem_ctrls0.bytes_read::switch_cpus_1.inst         3392                       # Number of bytes read from this memory
system.mem_ctrls0.bytes_read::switch_cpus_1.data     40744832                       # Number of bytes read from this memory
system.mem_ctrls0.bytes_read::total         273636480                       # Number of bytes read from this memory
system.mem_ctrls0.bytes_inst_read::cpu.inst          128                       # Number of instructions bytes read from this memory
system.mem_ctrls0.bytes_inst_read::switch_cpus.inst        43968                       # Number of instructions bytes read from this memory
system.mem_ctrls0.bytes_inst_read::switch_cpus_1.inst         3392                       # Number of instructions bytes read from this memory
system.mem_ctrls0.bytes_inst_read::total        47488                       # Number of instructions bytes read from this memory
system.mem_ctrls0.bytes_written::writebacks     87501120                       # Number of bytes written to this memory
system.mem_ctrls0.bytes_written::total       87501120                       # Number of bytes written to this memory
system.mem_ctrls0.num_reads::cpu.inst               2                       # Number of read requests responded to by this memory
system.mem_ctrls0.num_reads::cpu.data               3                       # Number of read requests responded to by this memory
system.mem_ctrls0.num_reads::switch_cpus.inst          687                       # Number of read requests responded to by this memory
system.mem_ctrls0.num_reads::switch_cpus.data      3638187                       # Number of read requests responded to by this memory
system.mem_ctrls0.num_reads::switch_cpus_1.inst           53                       # Number of read requests responded to by this memory
system.mem_ctrls0.num_reads::switch_cpus_1.data       636638                       # Number of read requests responded to by this memory
system.mem_ctrls0.num_reads::total            4275570                       # Number of read requests responded to by this memory
system.mem_ctrls0.num_writes::writebacks      1367205                       # Number of write requests responded to by this memory
system.mem_ctrls0.num_writes::total           1367205                       # Number of write requests responded to by this memory
system.mem_ctrls0.bw_read::cpu.inst                64                       # Total read bandwidth from this memory (bytes/s)
system.mem_ctrls0.bw_read::cpu.data                96                       # Total read bandwidth from this memory (bytes/s)
system.mem_ctrls0.bw_read::switch_cpus.inst        21894                       # Total read bandwidth from this memory (bytes/s)
system.mem_ctrls0.bw_read::switch_cpus.data    115943800                       # Total read bandwidth from this memory (bytes/s)
system.mem_ctrls0.bw_read::switch_cpus_1.inst         1689                       # Total read bandwidth from this memory (bytes/s)
system.mem_ctrls0.bw_read::switch_cpus_1.data     20288740                       # Total read bandwidth from this memory (bytes/s)
system.mem_ctrls0.bw_read::total            136256282                       # Total read bandwidth from this memory (bytes/s)
system.mem_ctrls0.bw_inst_read::cpu.inst           64                       # Instruction read bandwidth from this memory (bytes/s)
system.mem_ctrls0.bw_inst_read::switch_cpus.inst        21894                       # Instruction read bandwidth from this memory (bytes/s)
system.mem_ctrls0.bw_inst_read::switch_cpus_1.inst         1689                       # Instruction read bandwidth from this memory (bytes/s)
system.mem_ctrls0.bw_inst_read::total           23646                       # Instruction read bandwidth from this memory (bytes/s)
system.mem_ctrls0.bw_write::writebacks       43570862                       # Write bandwidth from this memory (bytes/s)
system.mem_ctrls0.bw_write::total            43570862                       # Write bandwidth from this memory (bytes/s)
system.mem_ctrls0.bw_total::writebacks       43570862                       # Total bandwidth to/from this memory (bytes/s)
system.mem_ctrls0.bw_total::cpu.inst               64                       # Total bandwidth to/from this memory (bytes/s)
system.mem_ctrls0.bw_total::cpu.data               96                       # Total bandwidth to/from this memory (bytes/s)
system.mem_ctrls0.bw_total::switch_cpus.inst        21894                       # Total bandwidth to/from this memory (bytes/s)
system.mem_ctrls0.bw_total::switch_cpus.data    115943800                       # Total bandwidth to/from this memory (bytes/s)
system.mem_ctrls0.bw_total::switch_cpus_1.inst         1689                       # Total bandwidth to/from this memory (bytes/s)
system.mem_ctrls0.bw_total::switch_cpus_1.data     20288740                       # Total bandwidth to/from this memory (bytes/s)
system.mem_ctrls0.bw_total::total           179827144                       # Total bandwidth to/from this memory (bytes/s)
system.mem_ctrls0.readReqs                    4275572                       # Number of read requests accepted
system.mem_ctrls0.writeReqs                   1367205                       # Number of write requests accepted
system.mem_ctrls0.readBursts                  4275572                       # Number of DRAM read bursts, including those serviced by the write queue
system.mem_ctrls0.writeBursts                 1367205                       # Number of DRAM write bursts, including those merged in the write queue
system.mem_ctrls0.bytesReadDRAM             273595072                       # Total number of bytes read from DRAM
system.mem_ctrls0.bytesReadWrQ                  41536                       # Total number of bytes read from write queue
system.mem_ctrls0.bytesWritten               87499264                       # Total number of bytes written to DRAM
system.mem_ctrls0.bytesReadSys              273636608                       # Total read bytes from the system interface side
system.mem_ctrls0.bytesWrittenSys            87501120                       # Total written bytes from the system interface side
system.mem_ctrls0.servicedByWrQ                   649                       # Number of DRAM read bursts serviced by the write queue
system.mem_ctrls0.mergedWrBursts                    0                       # Number of DRAM write bursts merged with an existing one
system.mem_ctrls0.neitherReadNorWriteReqs            0                       # Number of requests that are neither read nor write
system.mem_ctrls0.perBankRdBursts::0           273168                       # Per bank write bursts
system.mem_ctrls0.perBankRdBursts::1           269249                       # Per bank write bursts
system.mem_ctrls0.perBankRdBursts::2           266399                       # Per bank write bursts
system.mem_ctrls0.perBankRdBursts::3           266749                       # Per bank write bursts
system.mem_ctrls0.perBankRdBursts::4           266287                       # Per bank write bursts
system.mem_ctrls0.perBankRdBursts::5           268802                       # Per bank write bursts
system.mem_ctrls0.perBankRdBursts::6           269160                       # Per bank write bursts
system.mem_ctrls0.perBankRdBursts::7           269741                       # Per bank write bursts
system.mem_ctrls0.perBankRdBursts::8           271040                       # Per bank write bursts
system.mem_ctrls0.perBankRdBursts::9           268330                       # Per bank write bursts
system.mem_ctrls0.perBankRdBursts::10          263115                       # Per bank write bursts
system.mem_ctrls0.perBankRdBursts::11          260355                       # Per bank write bursts
system.mem_ctrls0.perBankRdBursts::12          259593                       # Per bank write bursts
system.mem_ctrls0.perBankRdBursts::13          264186                       # Per bank write bursts
system.mem_ctrls0.perBankRdBursts::14          269212                       # Per bank write bursts
system.mem_ctrls0.perBankRdBursts::15          269537                       # Per bank write bursts
system.mem_ctrls0.perBankWrBursts::0            88104                       # Per bank write bursts
system.mem_ctrls0.perBankWrBursts::1            86525                       # Per bank write bursts
system.mem_ctrls0.perBankWrBursts::2            85824                       # Per bank write bursts
system.mem_ctrls0.perBankWrBursts::3            86834                       # Per bank write bursts
system.mem_ctrls0.perBankWrBursts::4            87443                       # Per bank write bursts
system.mem_ctrls0.perBankWrBursts::5            87561                       # Per bank write bursts
system.mem_ctrls0.perBankWrBursts::6            84988                       # Per bank write bursts
system.mem_ctrls0.perBankWrBursts::7            84252                       # Per bank write bursts
system.mem_ctrls0.perBankWrBursts::8            84659                       # Per bank write bursts
system.mem_ctrls0.perBankWrBursts::9            84986                       # Per bank write bursts
system.mem_ctrls0.perBankWrBursts::10           84344                       # Per bank write bursts
system.mem_ctrls0.perBankWrBursts::11           83213                       # Per bank write bursts
system.mem_ctrls0.perBankWrBursts::12           82466                       # Per bank write bursts
system.mem_ctrls0.perBankWrBursts::13           83456                       # Per bank write bursts
system.mem_ctrls0.perBankWrBursts::14           86043                       # Per bank write bursts
system.mem_ctrls0.perBankWrBursts::15           86478                       # Per bank write bursts
system.mem_ctrls0.numRdRetry                        0                       # Number of times read queue was full causing retry
system.mem_ctrls0.numWrRetry                        0                       # Number of times write queue was full causing retry
system.mem_ctrls0.totGap                 2008248400008                       # Total gap between requests
system.mem_ctrls0.readPktSize::0                    0                       # Read request sizes (log2)
system.mem_ctrls0.readPktSize::1                    0                       # Read request sizes (log2)
system.mem_ctrls0.readPktSize::2                    0                       # Read request sizes (log2)
system.mem_ctrls0.readPktSize::3                    0                       # Read request sizes (log2)
system.mem_ctrls0.readPktSize::4                    0                       # Read request sizes (log2)
system.mem_ctrls0.readPktSize::5                    0                       # Read request sizes (log2)
system.mem_ctrls0.readPktSize::6              4275572                       # Read request sizes (log2)
system.mem_ctrls0.writePktSize::0                   0                       # Write request sizes (log2)
system.mem_ctrls0.writePktSize::1                   0                       # Write request sizes (log2)
system.mem_ctrls0.writePktSize::2                   0                       # Write request sizes (log2)
system.mem_ctrls0.writePktSize::3                   0                       # Write request sizes (log2)
system.mem_ctrls0.writePktSize::4                   0                       # Write request sizes (log2)
system.mem_ctrls0.writePktSize::5                   0                       # Write request sizes (log2)
system.mem_ctrls0.writePktSize::6             1367205                       # Write request sizes (log2)
system.mem_ctrls0.rdQLenPdf::0                4107658                       # What read queue length does an incoming req see
system.mem_ctrls0.rdQLenPdf::1                 135859                       # What read queue length does an incoming req see
system.mem_ctrls0.rdQLenPdf::2                  29337                       # What read queue length does an incoming req see
system.mem_ctrls0.rdQLenPdf::3                   2067                       # What read queue length does an incoming req see
system.mem_ctrls0.rdQLenPdf::4                      2                       # What read queue length does an incoming req see
system.mem_ctrls0.rdQLenPdf::5                      0                       # What read queue length does an incoming req see
system.mem_ctrls0.rdQLenPdf::6                      0                       # What read queue length does an incoming req see
system.mem_ctrls0.rdQLenPdf::7                      0                       # What read queue length does an incoming req see
system.mem_ctrls0.rdQLenPdf::8                      0                       # What read queue length does an incoming req see
system.mem_ctrls0.rdQLenPdf::9                      0                       # What read queue length does an incoming req see
system.mem_ctrls0.rdQLenPdf::10                     0                       # What read queue length does an incoming req see
system.mem_ctrls0.rdQLenPdf::11                     0                       # What read queue length does an incoming req see
system.mem_ctrls0.rdQLenPdf::12                     0                       # What read queue length does an incoming req see
system.mem_ctrls0.rdQLenPdf::13                     0                       # What read queue length does an incoming req see
system.mem_ctrls0.rdQLenPdf::14                     0                       # What read queue length does an incoming req see
system.mem_ctrls0.rdQLenPdf::15                     0                       # What read queue length does an incoming req see
system.mem_ctrls0.rdQLenPdf::16                     0                       # What read queue length does an incoming req see
system.mem_ctrls0.rdQLenPdf::17                     0                       # What read queue length does an incoming req see
system.mem_ctrls0.rdQLenPdf::18                     0                       # What read queue length does an incoming req see
system.mem_ctrls0.rdQLenPdf::19                     0                       # What read queue length does an incoming req see
system.mem_ctrls0.rdQLenPdf::20                     0                       # What read queue length does an incoming req see
system.mem_ctrls0.rdQLenPdf::21                     0                       # What read queue length does an incoming req see
system.mem_ctrls0.rdQLenPdf::22                     0                       # What read queue length does an incoming req see
system.mem_ctrls0.rdQLenPdf::23                     0                       # What read queue length does an incoming req see
system.mem_ctrls0.rdQLenPdf::24                     0                       # What read queue length does an incoming req see
system.mem_ctrls0.rdQLenPdf::25                     0                       # What read queue length does an incoming req see
system.mem_ctrls0.rdQLenPdf::26                     0                       # What read queue length does an incoming req see
system.mem_ctrls0.rdQLenPdf::27                     0                       # What read queue length does an incoming req see
system.mem_ctrls0.rdQLenPdf::28                     0                       # What read queue length does an incoming req see
system.mem_ctrls0.rdQLenPdf::29                     0                       # What read queue length does an incoming req see
system.mem_ctrls0.rdQLenPdf::30                     0                       # What read queue length does an incoming req see
system.mem_ctrls0.rdQLenPdf::31                     0                       # What read queue length does an incoming req see
system.mem_ctrls0.wrQLenPdf::0                      2                       # What write queue length does an incoming req see
system.mem_ctrls0.wrQLenPdf::1                      2                       # What write queue length does an incoming req see
system.mem_ctrls0.wrQLenPdf::2                      2                       # What write queue length does an incoming req see
system.mem_ctrls0.wrQLenPdf::3                      2                       # What write queue length does an incoming req see
system.mem_ctrls0.wrQLenPdf::4                      2                       # What write queue length does an incoming req see
system.mem_ctrls0.wrQLenPdf::5                      2                       # What write queue length does an incoming req see
system.mem_ctrls0.wrQLenPdf::6                      2                       # What write queue length does an incoming req see
system.mem_ctrls0.wrQLenPdf::7                      2                       # What write queue length does an incoming req see
system.mem_ctrls0.wrQLenPdf::8                      2                       # What write queue length does an incoming req see
system.mem_ctrls0.wrQLenPdf::9                      2                       # What write queue length does an incoming req see
system.mem_ctrls0.wrQLenPdf::10                     2                       # What write queue length does an incoming req see
system.mem_ctrls0.wrQLenPdf::11                     2                       # What write queue length does an incoming req see
system.mem_ctrls0.wrQLenPdf::12                     2                       # What write queue length does an incoming req see
system.mem_ctrls0.wrQLenPdf::13                     2                       # What write queue length does an incoming req see
system.mem_ctrls0.wrQLenPdf::14                     2                       # What write queue length does an incoming req see
system.mem_ctrls0.wrQLenPdf::15                 43162                       # What write queue length does an incoming req see
system.mem_ctrls0.wrQLenPdf::16                 44927                       # What write queue length does an incoming req see
system.mem_ctrls0.wrQLenPdf::17                 75645                       # What write queue length does an incoming req see
system.mem_ctrls0.wrQLenPdf::18                 79428                       # What write queue length does an incoming req see
system.mem_ctrls0.wrQLenPdf::19                 80076                       # What write queue length does an incoming req see
system.mem_ctrls0.wrQLenPdf::20                 80187                       # What write queue length does an incoming req see
system.mem_ctrls0.wrQLenPdf::21                 80228                       # What write queue length does an incoming req see
system.mem_ctrls0.wrQLenPdf::22                 80243                       # What write queue length does an incoming req see
system.mem_ctrls0.wrQLenPdf::23                 80308                       # What write queue length does an incoming req see
system.mem_ctrls0.wrQLenPdf::24                 80454                       # What write queue length does an incoming req see
system.mem_ctrls0.wrQLenPdf::25                 81043                       # What write queue length does an incoming req see
system.mem_ctrls0.wrQLenPdf::26                 80681                       # What write queue length does an incoming req see
system.mem_ctrls0.wrQLenPdf::27                 80388                       # What write queue length does an incoming req see
system.mem_ctrls0.wrQLenPdf::28                 80343                       # What write queue length does an incoming req see
system.mem_ctrls0.wrQLenPdf::29                 80201                       # What write queue length does an incoming req see
system.mem_ctrls0.wrQLenPdf::30                 80181                       # What write queue length does an incoming req see
system.mem_ctrls0.wrQLenPdf::31                 79848                       # What write queue length does an incoming req see
system.mem_ctrls0.wrQLenPdf::32                 79766                       # What write queue length does an incoming req see
system.mem_ctrls0.wrQLenPdf::33                    62                       # What write queue length does an incoming req see
system.mem_ctrls0.wrQLenPdf::34                     4                       # What write queue length does an incoming req see
system.mem_ctrls0.wrQLenPdf::35                     0                       # What write queue length does an incoming req see
system.mem_ctrls0.wrQLenPdf::36                     0                       # What write queue length does an incoming req see
system.mem_ctrls0.wrQLenPdf::37                     0                       # What write queue length does an incoming req see
system.mem_ctrls0.wrQLenPdf::38                     0                       # What write queue length does an incoming req see
system.mem_ctrls0.wrQLenPdf::39                     0                       # What write queue length does an incoming req see
system.mem_ctrls0.wrQLenPdf::40                     0                       # What write queue length does an incoming req see
system.mem_ctrls0.wrQLenPdf::41                     0                       # What write queue length does an incoming req see
system.mem_ctrls0.wrQLenPdf::42                     0                       # What write queue length does an incoming req see
system.mem_ctrls0.wrQLenPdf::43                     0                       # What write queue length does an incoming req see
system.mem_ctrls0.wrQLenPdf::44                     0                       # What write queue length does an incoming req see
system.mem_ctrls0.wrQLenPdf::45                     0                       # What write queue length does an incoming req see
system.mem_ctrls0.wrQLenPdf::46                     0                       # What write queue length does an incoming req see
system.mem_ctrls0.wrQLenPdf::47                     0                       # What write queue length does an incoming req see
system.mem_ctrls0.wrQLenPdf::48                     0                       # What write queue length does an incoming req see
system.mem_ctrls0.wrQLenPdf::49                     0                       # What write queue length does an incoming req see
system.mem_ctrls0.wrQLenPdf::50                     0                       # What write queue length does an incoming req see
system.mem_ctrls0.wrQLenPdf::51                     0                       # What write queue length does an incoming req see
system.mem_ctrls0.wrQLenPdf::52                     0                       # What write queue length does an incoming req see
system.mem_ctrls0.wrQLenPdf::53                     0                       # What write queue length does an incoming req see
system.mem_ctrls0.wrQLenPdf::54                     0                       # What write queue length does an incoming req see
system.mem_ctrls0.wrQLenPdf::55                     0                       # What write queue length does an incoming req see
system.mem_ctrls0.wrQLenPdf::56                     0                       # What write queue length does an incoming req see
system.mem_ctrls0.wrQLenPdf::57                     0                       # What write queue length does an incoming req see
system.mem_ctrls0.wrQLenPdf::58                     0                       # What write queue length does an incoming req see
system.mem_ctrls0.wrQLenPdf::59                     0                       # What write queue length does an incoming req see
system.mem_ctrls0.wrQLenPdf::60                     0                       # What write queue length does an incoming req see
system.mem_ctrls0.wrQLenPdf::61                     0                       # What write queue length does an incoming req see
system.mem_ctrls0.wrQLenPdf::62                     0                       # What write queue length does an incoming req see
system.mem_ctrls0.wrQLenPdf::63                     0                       # What write queue length does an incoming req see
system.mem_ctrls0.bytesPerActivate::samples      2605124                       # Bytes accessed per row activation
system.mem_ctrls0.bytesPerActivate::mean   138.608066                       # Bytes accessed per row activation
system.mem_ctrls0.bytesPerActivate::gmean   106.195541                       # Bytes accessed per row activation
system.mem_ctrls0.bytesPerActivate::stdev   134.266617                       # Bytes accessed per row activation
system.mem_ctrls0.bytesPerActivate::0-127      1382337     53.06%     53.06% # Bytes accessed per row activation
system.mem_ctrls0.bytesPerActivate::128-255       891546     34.22%     87.29% # Bytes accessed per row activation
system.mem_ctrls0.bytesPerActivate::256-383       120644      4.63%     91.92% # Bytes accessed per row activation
system.mem_ctrls0.bytesPerActivate::384-511        82394      3.16%     95.08% # Bytes accessed per row activation
system.mem_ctrls0.bytesPerActivate::512-639        78695      3.02%     98.10% # Bytes accessed per row activation
system.mem_ctrls0.bytesPerActivate::640-767        33572      1.29%     99.39% # Bytes accessed per row activation
system.mem_ctrls0.bytesPerActivate::768-895         8588      0.33%     99.72% # Bytes accessed per row activation
system.mem_ctrls0.bytesPerActivate::896-1023         1915      0.07%     99.79% # Bytes accessed per row activation
system.mem_ctrls0.bytesPerActivate::1024-1151         5433      0.21%    100.00% # Bytes accessed per row activation
system.mem_ctrls0.bytesPerActivate::total      2605124                       # Bytes accessed per row activation
system.mem_ctrls0.rdPerTurnAround::samples        79715                       # Reads before turning the bus around for writes
system.mem_ctrls0.rdPerTurnAround::mean     53.626833                       # Reads before turning the bus around for writes
system.mem_ctrls0.rdPerTurnAround::gmean    48.036987                       # Reads before turning the bus around for writes
system.mem_ctrls0.rdPerTurnAround::stdev   114.634997                       # Reads before turning the bus around for writes
system.mem_ctrls0.rdPerTurnAround::0-1023        79714    100.00%    100.00% # Reads before turning the bus around for writes
system.mem_ctrls0.rdPerTurnAround::30720-31743            1      0.00%    100.00% # Reads before turning the bus around for writes
system.mem_ctrls0.rdPerTurnAround::total        79715                       # Reads before turning the bus around for writes
system.mem_ctrls0.wrPerTurnAround::samples        79715                       # Writes before turning the bus around for reads
system.mem_ctrls0.wrPerTurnAround::mean     17.150800                       # Writes before turning the bus around for reads
system.mem_ctrls0.wrPerTurnAround::gmean    17.118583                       # Writes before turning the bus around for reads
system.mem_ctrls0.wrPerTurnAround::stdev     1.050403                       # Writes before turning the bus around for reads
system.mem_ctrls0.wrPerTurnAround::16           34846     43.71%     43.71% # Writes before turning the bus around for reads
system.mem_ctrls0.wrPerTurnAround::17            1520      1.91%     45.62% # Writes before turning the bus around for reads
system.mem_ctrls0.wrPerTurnAround::18           40217     50.45%     96.07% # Writes before turning the bus around for reads
system.mem_ctrls0.wrPerTurnAround::19            2799      3.51%     99.58% # Writes before turning the bus around for reads
system.mem_ctrls0.wrPerTurnAround::20             294      0.37%     99.95% # Writes before turning the bus around for reads
system.mem_ctrls0.wrPerTurnAround::21              35      0.04%     99.99% # Writes before turning the bus around for reads
system.mem_ctrls0.wrPerTurnAround::22               3      0.00%    100.00% # Writes before turning the bus around for reads
system.mem_ctrls0.wrPerTurnAround::32               1      0.00%    100.00% # Writes before turning the bus around for reads
system.mem_ctrls0.wrPerTurnAround::total        79715                       # Writes before turning the bus around for reads
system.mem_ctrls0.totQLat                 96381107672                       # Total ticks spent queuing
system.mem_ctrls0.totMemAccLat           176535913922                       # Total ticks spent from burst creation until serviced by the DRAM
system.mem_ctrls0.totBusLat               21374615000                       # Total ticks spent in databus transfers
system.mem_ctrls0.avgQLat                    22545.69                       # Average queueing delay per DRAM burst
system.mem_ctrls0.avgBusLat                   5000.00                       # Average bus latency per DRAM burst
system.mem_ctrls0.avgMemAccLat               41295.69                       # Average memory access latency per DRAM burst
system.mem_ctrls0.avgRdBW                      136.24                       # Average DRAM read bandwidth in MiByte/s
system.mem_ctrls0.avgWrBW                       43.57                       # Average achieved write bandwidth in MiByte/s
system.mem_ctrls0.avgRdBWSys                   136.26                       # Average system read bandwidth in MiByte/s
system.mem_ctrls0.avgWrBWSys                    43.57                       # Average system write bandwidth in MiByte/s
system.mem_ctrls0.peakBW                     12800.00                       # Theoretical peak bandwidth in MiByte/s
system.mem_ctrls0.busUtil                        1.40                       # Data bus utilization in percentage
system.mem_ctrls0.busUtilRead                    1.06                       # Data bus utilization in percentage for reads
system.mem_ctrls0.busUtilWrite                   0.34                       # Data bus utilization in percentage for writes
system.mem_ctrls0.avgRdQLen                      1.01                       # Average read queue length when enqueuing
system.mem_ctrls0.avgWrQLen                     24.54                       # Average write queue length when enqueuing
system.mem_ctrls0.readRowHits                 2591504                       # Number of row buffer hits during reads
system.mem_ctrls0.writeRowHits                 445461                       # Number of row buffer hits during writes
system.mem_ctrls0.readRowHitRate                60.62                       # Row buffer hit rate for reads
system.mem_ctrls0.writeRowHitRate               32.58                       # Row buffer hit rate for writes
system.mem_ctrls0.avgGap                    355897.18                       # Average gap between requests
system.mem_ctrls0.pageHitRate                   53.83                       # Row buffer hit rate, read and write combined
system.mem_ctrls0_0.actEnergy              9365159580                       # Energy for activate commands per rank (pJ)
system.mem_ctrls0_0.preEnergy              4977673800                       # Energy for precharge commands per rank (pJ)
system.mem_ctrls0_0.readEnergy            15347822700                       # Energy for read commands per rank (pJ)
system.mem_ctrls0_0.writeEnergy            3609791820                       # Energy for write commands per rank (pJ)
system.mem_ctrls0_0.refreshEnergy        156118560000.000031                       # Energy for refresh commands per rank (pJ)
system.mem_ctrls0_0.actBackEnergy         96693156690                       # Energy for active background per rank (pJ)
system.mem_ctrls0_0.preBackEnergy          5604807840                       # Energy for precharge background per rank (pJ)
system.mem_ctrls0_0.actPowerDownEnergy   600850035900                       # Energy for active power-down per rank (pJ)
system.mem_ctrls0_0.prePowerDownEnergy   120335442240                       # Energy for precharge power-down per rank (pJ)
system.mem_ctrls0_0.selfRefreshEnergy     45291668160                       # Energy for self refresh per rank (pJ)
system.mem_ctrls0_0.totalEnergy          1058231086140                       # Total energy per rank (pJ)
system.mem_ctrls0_0.averagePower           526.942286                       # Core power per rank (mW)
system.mem_ctrls0_0.totalIdleTime        1781517197821                       # Total Idle time Per DRAM Rank
system.mem_ctrls0_0.memoryStateTime::IDLE   5863727764                       # Time in different power states
system.mem_ctrls0_0.memoryStateTime::REF  66143104000                       # Time in different power states
system.mem_ctrls0_0.memoryStateTime::SREF 150496990697                       # Time in different power states
system.mem_ctrls0_0.memoryStateTime::PRE_PDN 313368928539                       # Time in different power states
system.mem_ctrls0_0.memoryStateTime::ACT 154724512281                       # Time in different power states
system.mem_ctrls0_0.memoryStateTime::ACT_PDN 1317651278585                       # Time in different power states
system.mem_ctrls0_1.actEnergy              9235497180                       # Energy for activate commands per rank (pJ)
system.mem_ctrls0_1.preEnergy              4908771780                       # Energy for precharge commands per rank (pJ)
system.mem_ctrls0_1.readEnergy            15175120380                       # Energy for read commands per rank (pJ)
system.mem_ctrls0_1.writeEnergy            3526866900                       # Energy for write commands per rank (pJ)
system.mem_ctrls0_1.refreshEnergy        155552476560.000031                       # Energy for refresh commands per rank (pJ)
system.mem_ctrls0_1.actBackEnergy         97289509500                       # Energy for active background per rank (pJ)
system.mem_ctrls0_1.preBackEnergy          5617925760                       # Energy for precharge background per rank (pJ)
system.mem_ctrls0_1.actPowerDownEnergy   595941041430                       # Energy for active power-down per rank (pJ)
system.mem_ctrls0_1.prePowerDownEnergy   120373442400                       # Energy for precharge power-down per rank (pJ)
system.mem_ctrls0_1.selfRefreshEnergy     47693345505                       # Energy for self refresh per rank (pJ)
system.mem_ctrls0_1.totalEnergy          1055349861195                       # Total energy per rank (pJ)
system.mem_ctrls0_1.averagePower           525.507586                       # Core power per rank (mW)
system.mem_ctrls0_1.totalIdleTime        1780184998659                       # Total Idle time Per DRAM Rank
system.mem_ctrls0_1.memoryStateTime::IDLE   5934282211                       # Time in different power states
system.mem_ctrls0_1.memoryStateTime::REF  65905258000                       # Time in different power states
system.mem_ctrls0_1.memoryStateTime::SREF 159823840979                       # Time in different power states
system.mem_ctrls0_1.memoryStateTime::PRE_PDN 313471012509                       # Time in different power states
system.mem_ctrls0_1.memoryStateTime::ACT 156224002996                       # Time in different power states
system.mem_ctrls0_1.memoryStateTime::ACT_PDN 1306890145171                       # Time in different power states
system.mem_ctrls1.pwrStateResidencyTicks::UNDEFINED 75278402342568                       # Cumulative time (in ticks) in various power states
system.mem_ctrls1.bytes_read::cpu.inst            128                       # Number of bytes read from this memory
system.mem_ctrls1.bytes_read::cpu.data            192                       # Number of bytes read from this memory
system.mem_ctrls1.bytes_read::switch_cpus.inst        43840                       # Number of bytes read from this memory
system.mem_ctrls1.bytes_read::switch_cpus.data    232906880                       # Number of bytes read from this memory
system.mem_ctrls1.bytes_read::switch_cpus_1.inst         3200                       # Number of bytes read from this memory
system.mem_ctrls1.bytes_read::switch_cpus_1.data     40771584                       # Number of bytes read from this memory
system.mem_ctrls1.bytes_read::total         273725824                       # Number of bytes read from this memory
system.mem_ctrls1.bytes_inst_read::cpu.inst          128                       # Number of instructions bytes read from this memory
system.mem_ctrls1.bytes_inst_read::switch_cpus.inst        43840                       # Number of instructions bytes read from this memory
system.mem_ctrls1.bytes_inst_read::switch_cpus_1.inst         3200                       # Number of instructions bytes read from this memory
system.mem_ctrls1.bytes_inst_read::total        47168                       # Number of instructions bytes read from this memory
system.mem_ctrls1.bytes_written::writebacks     87500864                       # Number of bytes written to this memory
system.mem_ctrls1.bytes_written::total       87500864                       # Number of bytes written to this memory
system.mem_ctrls1.num_reads::cpu.inst               2                       # Number of read requests responded to by this memory
system.mem_ctrls1.num_reads::cpu.data               3                       # Number of read requests responded to by this memory
system.mem_ctrls1.num_reads::switch_cpus.inst          685                       # Number of read requests responded to by this memory
system.mem_ctrls1.num_reads::switch_cpus.data      3639170                       # Number of read requests responded to by this memory
system.mem_ctrls1.num_reads::switch_cpus_1.inst           50                       # Number of read requests responded to by this memory
system.mem_ctrls1.num_reads::switch_cpus_1.data       637056                       # Number of read requests responded to by this memory
system.mem_ctrls1.num_reads::total            4276966                       # Number of read requests responded to by this memory
system.mem_ctrls1.num_writes::writebacks      1367201                       # Number of write requests responded to by this memory
system.mem_ctrls1.num_writes::total           1367201                       # Number of write requests responded to by this memory
system.mem_ctrls1.bw_read::cpu.inst                64                       # Total read bandwidth from this memory (bytes/s)
system.mem_ctrls1.bw_read::cpu.data                96                       # Total read bandwidth from this memory (bytes/s)
system.mem_ctrls1.bw_read::switch_cpus.inst        21830                       # Total read bandwidth from this memory (bytes/s)
system.mem_ctrls1.bw_read::switch_cpus.data    115975127                       # Total read bandwidth from this memory (bytes/s)
system.mem_ctrls1.bw_read::switch_cpus_1.inst         1593                       # Total read bandwidth from this memory (bytes/s)
system.mem_ctrls1.bw_read::switch_cpus_1.data     20302061                       # Total read bandwidth from this memory (bytes/s)
system.mem_ctrls1.bw_read::total            136300771                       # Total read bandwidth from this memory (bytes/s)
system.mem_ctrls1.bw_inst_read::cpu.inst           64                       # Instruction read bandwidth from this memory (bytes/s)
system.mem_ctrls1.bw_inst_read::switch_cpus.inst        21830                       # Instruction read bandwidth from this memory (bytes/s)
system.mem_ctrls1.bw_inst_read::switch_cpus_1.inst         1593                       # Instruction read bandwidth from this memory (bytes/s)
system.mem_ctrls1.bw_inst_read::total           23487                       # Instruction read bandwidth from this memory (bytes/s)
system.mem_ctrls1.bw_write::writebacks       43570734                       # Write bandwidth from this memory (bytes/s)
system.mem_ctrls1.bw_write::total            43570734                       # Write bandwidth from this memory (bytes/s)
system.mem_ctrls1.bw_total::writebacks       43570734                       # Total bandwidth to/from this memory (bytes/s)
system.mem_ctrls1.bw_total::cpu.inst               64                       # Total bandwidth to/from this memory (bytes/s)
system.mem_ctrls1.bw_total::cpu.data               96                       # Total bandwidth to/from this memory (bytes/s)
system.mem_ctrls1.bw_total::switch_cpus.inst        21830                       # Total bandwidth to/from this memory (bytes/s)
system.mem_ctrls1.bw_total::switch_cpus.data    115975127                       # Total bandwidth to/from this memory (bytes/s)
system.mem_ctrls1.bw_total::switch_cpus_1.inst         1593                       # Total bandwidth to/from this memory (bytes/s)
system.mem_ctrls1.bw_total::switch_cpus_1.data     20302061                       # Total bandwidth to/from this memory (bytes/s)
system.mem_ctrls1.bw_total::total           179871505                       # Total bandwidth to/from this memory (bytes/s)
system.mem_ctrls1.readReqs                    4276966                       # Number of read requests accepted
system.mem_ctrls1.writeReqs                   1367201                       # Number of write requests accepted
system.mem_ctrls1.readBursts                  4276966                       # Number of DRAM read bursts, including those serviced by the write queue
system.mem_ctrls1.writeBursts                 1367201                       # Number of DRAM write bursts, including those merged in the write queue
system.mem_ctrls1.bytesReadDRAM             273689920                       # Total number of bytes read from DRAM
system.mem_ctrls1.bytesReadWrQ                  35904                       # Total number of bytes read from write queue
system.mem_ctrls1.bytesWritten               87499072                       # Total number of bytes written to DRAM
system.mem_ctrls1.bytesReadSys              273725824                       # Total read bytes from the system interface side
system.mem_ctrls1.bytesWrittenSys            87500864                       # Total written bytes from the system interface side
system.mem_ctrls1.servicedByWrQ                   561                       # Number of DRAM read bursts serviced by the write queue
system.mem_ctrls1.mergedWrBursts                    0                       # Number of DRAM write bursts merged with an existing one
system.mem_ctrls1.neitherReadNorWriteReqs            0                       # Number of requests that are neither read nor write
system.mem_ctrls1.perBankRdBursts::0           273181                       # Per bank write bursts
system.mem_ctrls1.perBankRdBursts::1           269270                       # Per bank write bursts
system.mem_ctrls1.perBankRdBursts::2           266507                       # Per bank write bursts
system.mem_ctrls1.perBankRdBursts::3           267122                       # Per bank write bursts
system.mem_ctrls1.perBankRdBursts::4           266374                       # Per bank write bursts
system.mem_ctrls1.perBankRdBursts::5           269002                       # Per bank write bursts
system.mem_ctrls1.perBankRdBursts::6           268930                       # Per bank write bursts
system.mem_ctrls1.perBankRdBursts::7           269758                       # Per bank write bursts
system.mem_ctrls1.perBankRdBursts::8           271246                       # Per bank write bursts
system.mem_ctrls1.perBankRdBursts::9           268513                       # Per bank write bursts
system.mem_ctrls1.perBankRdBursts::10          263233                       # Per bank write bursts
system.mem_ctrls1.perBankRdBursts::11          260247                       # Per bank write bursts
system.mem_ctrls1.perBankRdBursts::12          259721                       # Per bank write bursts
system.mem_ctrls1.perBankRdBursts::13          264213                       # Per bank write bursts
system.mem_ctrls1.perBankRdBursts::14          269532                       # Per bank write bursts
system.mem_ctrls1.perBankRdBursts::15          269556                       # Per bank write bursts
system.mem_ctrls1.perBankWrBursts::0            88087                       # Per bank write bursts
system.mem_ctrls1.perBankWrBursts::1            86539                       # Per bank write bursts
system.mem_ctrls1.perBankWrBursts::2            85776                       # Per bank write bursts
system.mem_ctrls1.perBankWrBursts::3            86954                       # Per bank write bursts
system.mem_ctrls1.perBankWrBursts::4            87502                       # Per bank write bursts
system.mem_ctrls1.perBankWrBursts::5            87494                       # Per bank write bursts
system.mem_ctrls1.perBankWrBursts::6            85017                       # Per bank write bursts
system.mem_ctrls1.perBankWrBursts::7            84154                       # Per bank write bursts
system.mem_ctrls1.perBankWrBursts::8            84676                       # Per bank write bursts
system.mem_ctrls1.perBankWrBursts::9            84887                       # Per bank write bursts
system.mem_ctrls1.perBankWrBursts::10           84363                       # Per bank write bursts
system.mem_ctrls1.perBankWrBursts::11           83192                       # Per bank write bursts
system.mem_ctrls1.perBankWrBursts::12           82430                       # Per bank write bursts
system.mem_ctrls1.perBankWrBursts::13           83552                       # Per bank write bursts
system.mem_ctrls1.perBankWrBursts::14           86097                       # Per bank write bursts
system.mem_ctrls1.perBankWrBursts::15           86453                       # Per bank write bursts
system.mem_ctrls1.numRdRetry                        0                       # Number of times read queue was full causing retry
system.mem_ctrls1.numWrRetry                        0                       # Number of times write queue was full causing retry
system.mem_ctrls1.totGap                 2008248445296                       # Total gap between requests
system.mem_ctrls1.readPktSize::0                    0                       # Read request sizes (log2)
system.mem_ctrls1.readPktSize::1                    0                       # Read request sizes (log2)
system.mem_ctrls1.readPktSize::2                    0                       # Read request sizes (log2)
system.mem_ctrls1.readPktSize::3                    0                       # Read request sizes (log2)
system.mem_ctrls1.readPktSize::4                    0                       # Read request sizes (log2)
system.mem_ctrls1.readPktSize::5                    0                       # Read request sizes (log2)
system.mem_ctrls1.readPktSize::6              4276966                       # Read request sizes (log2)
system.mem_ctrls1.writePktSize::0                   0                       # Write request sizes (log2)
system.mem_ctrls1.writePktSize::1                   0                       # Write request sizes (log2)
system.mem_ctrls1.writePktSize::2                   0                       # Write request sizes (log2)
system.mem_ctrls1.writePktSize::3                   0                       # Write request sizes (log2)
system.mem_ctrls1.writePktSize::4                   0                       # Write request sizes (log2)
system.mem_ctrls1.writePktSize::5                   0                       # Write request sizes (log2)
system.mem_ctrls1.writePktSize::6             1367201                       # Write request sizes (log2)
system.mem_ctrls1.rdQLenPdf::0                4109339                       # What read queue length does an incoming req see
system.mem_ctrls1.rdQLenPdf::1                 135650                       # What read queue length does an incoming req see
system.mem_ctrls1.rdQLenPdf::2                  29348                       # What read queue length does an incoming req see
system.mem_ctrls1.rdQLenPdf::3                   2068                       # What read queue length does an incoming req see
system.mem_ctrls1.rdQLenPdf::4                      0                       # What read queue length does an incoming req see
system.mem_ctrls1.rdQLenPdf::5                      0                       # What read queue length does an incoming req see
system.mem_ctrls1.rdQLenPdf::6                      0                       # What read queue length does an incoming req see
system.mem_ctrls1.rdQLenPdf::7                      0                       # What read queue length does an incoming req see
system.mem_ctrls1.rdQLenPdf::8                      0                       # What read queue length does an incoming req see
system.mem_ctrls1.rdQLenPdf::9                      0                       # What read queue length does an incoming req see
system.mem_ctrls1.rdQLenPdf::10                     0                       # What read queue length does an incoming req see
system.mem_ctrls1.rdQLenPdf::11                     0                       # What read queue length does an incoming req see
system.mem_ctrls1.rdQLenPdf::12                     0                       # What read queue length does an incoming req see
system.mem_ctrls1.rdQLenPdf::13                     0                       # What read queue length does an incoming req see
system.mem_ctrls1.rdQLenPdf::14                     0                       # What read queue length does an incoming req see
system.mem_ctrls1.rdQLenPdf::15                     0                       # What read queue length does an incoming req see
system.mem_ctrls1.rdQLenPdf::16                     0                       # What read queue length does an incoming req see
system.mem_ctrls1.rdQLenPdf::17                     0                       # What read queue length does an incoming req see
system.mem_ctrls1.rdQLenPdf::18                     0                       # What read queue length does an incoming req see
system.mem_ctrls1.rdQLenPdf::19                     0                       # What read queue length does an incoming req see
system.mem_ctrls1.rdQLenPdf::20                     0                       # What read queue length does an incoming req see
system.mem_ctrls1.rdQLenPdf::21                     0                       # What read queue length does an incoming req see
system.mem_ctrls1.rdQLenPdf::22                     0                       # What read queue length does an incoming req see
system.mem_ctrls1.rdQLenPdf::23                     0                       # What read queue length does an incoming req see
system.mem_ctrls1.rdQLenPdf::24                     0                       # What read queue length does an incoming req see
system.mem_ctrls1.rdQLenPdf::25                     0                       # What read queue length does an incoming req see
system.mem_ctrls1.rdQLenPdf::26                     0                       # What read queue length does an incoming req see
system.mem_ctrls1.rdQLenPdf::27                     0                       # What read queue length does an incoming req see
system.mem_ctrls1.rdQLenPdf::28                     0                       # What read queue length does an incoming req see
system.mem_ctrls1.rdQLenPdf::29                     0                       # What read queue length does an incoming req see
system.mem_ctrls1.rdQLenPdf::30                     0                       # What read queue length does an incoming req see
system.mem_ctrls1.rdQLenPdf::31                     0                       # What read queue length does an incoming req see
system.mem_ctrls1.wrQLenPdf::0                      2                       # What write queue length does an incoming req see
system.mem_ctrls1.wrQLenPdf::1                      2                       # What write queue length does an incoming req see
system.mem_ctrls1.wrQLenPdf::2                      2                       # What write queue length does an incoming req see
system.mem_ctrls1.wrQLenPdf::3                      2                       # What write queue length does an incoming req see
system.mem_ctrls1.wrQLenPdf::4                      2                       # What write queue length does an incoming req see
system.mem_ctrls1.wrQLenPdf::5                      2                       # What write queue length does an incoming req see
system.mem_ctrls1.wrQLenPdf::6                      2                       # What write queue length does an incoming req see
system.mem_ctrls1.wrQLenPdf::7                      2                       # What write queue length does an incoming req see
system.mem_ctrls1.wrQLenPdf::8                      2                       # What write queue length does an incoming req see
system.mem_ctrls1.wrQLenPdf::9                      2                       # What write queue length does an incoming req see
system.mem_ctrls1.wrQLenPdf::10                     2                       # What write queue length does an incoming req see
system.mem_ctrls1.wrQLenPdf::11                     2                       # What write queue length does an incoming req see
system.mem_ctrls1.wrQLenPdf::12                     2                       # What write queue length does an incoming req see
system.mem_ctrls1.wrQLenPdf::13                     2                       # What write queue length does an incoming req see
system.mem_ctrls1.wrQLenPdf::14                     2                       # What write queue length does an incoming req see
system.mem_ctrls1.wrQLenPdf::15                 43267                       # What write queue length does an incoming req see
system.mem_ctrls1.wrQLenPdf::16                 45078                       # What write queue length does an incoming req see
system.mem_ctrls1.wrQLenPdf::17                 75573                       # What write queue length does an incoming req see
system.mem_ctrls1.wrQLenPdf::18                 79391                       # What write queue length does an incoming req see
system.mem_ctrls1.wrQLenPdf::19                 80067                       # What write queue length does an incoming req see
system.mem_ctrls1.wrQLenPdf::20                 80198                       # What write queue length does an incoming req see
system.mem_ctrls1.wrQLenPdf::21                 80203                       # What write queue length does an incoming req see
system.mem_ctrls1.wrQLenPdf::22                 80239                       # What write queue length does an incoming req see
system.mem_ctrls1.wrQLenPdf::23                 80230                       # What write queue length does an incoming req see
system.mem_ctrls1.wrQLenPdf::24                 80466                       # What write queue length does an incoming req see
system.mem_ctrls1.wrQLenPdf::25                 81089                       # What write queue length does an incoming req see
system.mem_ctrls1.wrQLenPdf::26                 80663                       # What write queue length does an incoming req see
system.mem_ctrls1.wrQLenPdf::27                 80410                       # What write queue length does an incoming req see
system.mem_ctrls1.wrQLenPdf::28                 80251                       # What write queue length does an incoming req see
system.mem_ctrls1.wrQLenPdf::29                 80194                       # What write queue length does an incoming req see
system.mem_ctrls1.wrQLenPdf::30                 80190                       # What write queue length does an incoming req see
system.mem_ctrls1.wrQLenPdf::31                 79825                       # What write queue length does an incoming req see
system.mem_ctrls1.wrQLenPdf::32                 79751                       # What write queue length does an incoming req see
system.mem_ctrls1.wrQLenPdf::33                    78                       # What write queue length does an incoming req see
system.mem_ctrls1.wrQLenPdf::34                     6                       # What write queue length does an incoming req see
system.mem_ctrls1.wrQLenPdf::35                     2                       # What write queue length does an incoming req see
system.mem_ctrls1.wrQLenPdf::36                     0                       # What write queue length does an incoming req see
system.mem_ctrls1.wrQLenPdf::37                     0                       # What write queue length does an incoming req see
system.mem_ctrls1.wrQLenPdf::38                     0                       # What write queue length does an incoming req see
system.mem_ctrls1.wrQLenPdf::39                     0                       # What write queue length does an incoming req see
system.mem_ctrls1.wrQLenPdf::40                     0                       # What write queue length does an incoming req see
system.mem_ctrls1.wrQLenPdf::41                     0                       # What write queue length does an incoming req see
system.mem_ctrls1.wrQLenPdf::42                     0                       # What write queue length does an incoming req see
system.mem_ctrls1.wrQLenPdf::43                     0                       # What write queue length does an incoming req see
system.mem_ctrls1.wrQLenPdf::44                     0                       # What write queue length does an incoming req see
system.mem_ctrls1.wrQLenPdf::45                     0                       # What write queue length does an incoming req see
system.mem_ctrls1.wrQLenPdf::46                     0                       # What write queue length does an incoming req see
system.mem_ctrls1.wrQLenPdf::47                     0                       # What write queue length does an incoming req see
system.mem_ctrls1.wrQLenPdf::48                     0                       # What write queue length does an incoming req see
system.mem_ctrls1.wrQLenPdf::49                     0                       # What write queue length does an incoming req see
system.mem_ctrls1.wrQLenPdf::50                     0                       # What write queue length does an incoming req see
system.mem_ctrls1.wrQLenPdf::51                     0                       # What write queue length does an incoming req see
system.mem_ctrls1.wrQLenPdf::52                     0                       # What write queue length does an incoming req see
system.mem_ctrls1.wrQLenPdf::53                     0                       # What write queue length does an incoming req see
system.mem_ctrls1.wrQLenPdf::54                     0                       # What write queue length does an incoming req see
system.mem_ctrls1.wrQLenPdf::55                     0                       # What write queue length does an incoming req see
system.mem_ctrls1.wrQLenPdf::56                     0                       # What write queue length does an incoming req see
system.mem_ctrls1.wrQLenPdf::57                     0                       # What write queue length does an incoming req see
system.mem_ctrls1.wrQLenPdf::58                     0                       # What write queue length does an incoming req see
system.mem_ctrls1.wrQLenPdf::59                     0                       # What write queue length does an incoming req see
system.mem_ctrls1.wrQLenPdf::60                     0                       # What write queue length does an incoming req see
system.mem_ctrls1.wrQLenPdf::61                     0                       # What write queue length does an incoming req see
system.mem_ctrls1.wrQLenPdf::62                     0                       # What write queue length does an incoming req see
system.mem_ctrls1.wrQLenPdf::63                     0                       # What write queue length does an incoming req see
system.mem_ctrls1.bytesPerActivate::samples      2605555                       # Bytes accessed per row activation
system.mem_ctrls1.bytesPerActivate::mean   138.621835                       # Bytes accessed per row activation
system.mem_ctrls1.bytesPerActivate::gmean   106.197829                       # Bytes accessed per row activation
system.mem_ctrls1.bytesPerActivate::stdev   134.287065                       # Bytes accessed per row activation
system.mem_ctrls1.bytesPerActivate::0-127      1382762     53.07%     53.07% # Bytes accessed per row activation
system.mem_ctrls1.bytesPerActivate::128-255       891482     34.21%     87.28% # Bytes accessed per row activation
system.mem_ctrls1.bytesPerActivate::256-383       120530      4.63%     91.91% # Bytes accessed per row activation
system.mem_ctrls1.bytesPerActivate::384-511        82381      3.16%     95.07% # Bytes accessed per row activation
system.mem_ctrls1.bytesPerActivate::512-639        78772      3.02%     98.10% # Bytes accessed per row activation
system.mem_ctrls1.bytesPerActivate::640-767        33663      1.29%     99.39% # Bytes accessed per row activation
system.mem_ctrls1.bytesPerActivate::768-895         8573      0.33%     99.72% # Bytes accessed per row activation
system.mem_ctrls1.bytesPerActivate::896-1023         1990      0.08%     99.79% # Bytes accessed per row activation
system.mem_ctrls1.bytesPerActivate::1024-1151         5402      0.21%    100.00% # Bytes accessed per row activation
system.mem_ctrls1.bytesPerActivate::total      2605555                       # Bytes accessed per row activation
system.mem_ctrls1.rdPerTurnAround::samples        79696                       # Reads before turning the bus around for writes
system.mem_ctrls1.rdPerTurnAround::mean     53.658540                       # Reads before turning the bus around for writes
system.mem_ctrls1.rdPerTurnAround::gmean    48.066199                       # Reads before turning the bus around for writes
system.mem_ctrls1.rdPerTurnAround::stdev   114.666303                       # Reads before turning the bus around for writes
system.mem_ctrls1.rdPerTurnAround::0-1023        79695    100.00%    100.00% # Reads before turning the bus around for writes
system.mem_ctrls1.rdPerTurnAround::30720-31743            1      0.00%    100.00% # Reads before turning the bus around for writes
system.mem_ctrls1.rdPerTurnAround::total        79696                       # Reads before turning the bus around for writes
system.mem_ctrls1.wrPerTurnAround::samples        79696                       # Writes before turning the bus around for reads
system.mem_ctrls1.wrPerTurnAround::mean     17.154851                       # Writes before turning the bus around for reads
system.mem_ctrls1.wrPerTurnAround::gmean    17.122608                       # Writes before turning the bus around for reads
system.mem_ctrls1.wrPerTurnAround::stdev     1.050479                       # Writes before turning the bus around for reads
system.mem_ctrls1.wrPerTurnAround::16           34716     43.56%     43.56% # Writes before turning the bus around for reads
system.mem_ctrls1.wrPerTurnAround::17            1521      1.91%     45.47% # Writes before turning the bus around for reads
system.mem_ctrls1.wrPerTurnAround::18           40258     50.51%     95.98% # Writes before turning the bus around for reads
system.mem_ctrls1.wrPerTurnAround::19            2846      3.57%     99.55% # Writes before turning the bus around for reads
system.mem_ctrls1.wrPerTurnAround::20             316      0.40%     99.95% # Writes before turning the bus around for reads
system.mem_ctrls1.wrPerTurnAround::21              37      0.05%    100.00% # Writes before turning the bus around for reads
system.mem_ctrls1.wrPerTurnAround::22               1      0.00%    100.00% # Writes before turning the bus around for reads
system.mem_ctrls1.wrPerTurnAround::23               1      0.00%    100.00% # Writes before turning the bus around for reads
system.mem_ctrls1.wrPerTurnAround::total        79696                       # Writes before turning the bus around for reads
system.mem_ctrls1.totQLat                 96000044071                       # Total ticks spent queuing
system.mem_ctrls1.totMemAccLat           176182637821                       # Total ticks spent from burst creation until serviced by the DRAM
system.mem_ctrls1.totBusLat               21382025000                       # Total ticks spent in databus transfers
system.mem_ctrls1.avgQLat                    22448.77                       # Average queueing delay per DRAM burst
system.mem_ctrls1.avgBusLat                   5000.00                       # Average bus latency per DRAM burst
system.mem_ctrls1.avgMemAccLat               41198.77                       # Average memory access latency per DRAM burst
system.mem_ctrls1.avgRdBW                      136.28                       # Average DRAM read bandwidth in MiByte/s
system.mem_ctrls1.avgWrBW                       43.57                       # Average achieved write bandwidth in MiByte/s
system.mem_ctrls1.avgRdBWSys                   136.30                       # Average system read bandwidth in MiByte/s
system.mem_ctrls1.avgWrBWSys                    43.57                       # Average system write bandwidth in MiByte/s
system.mem_ctrls1.peakBW                     12800.00                       # Theoretical peak bandwidth in MiByte/s
system.mem_ctrls1.busUtil                        1.41                       # Data bus utilization in percentage
system.mem_ctrls1.busUtilRead                    1.06                       # Data bus utilization in percentage for reads
system.mem_ctrls1.busUtilWrite                   0.34                       # Data bus utilization in percentage for writes
system.mem_ctrls1.avgRdQLen                      1.01                       # Average read queue length when enqueuing
system.mem_ctrls1.avgWrQLen                     24.54                       # Average write queue length when enqueuing
system.mem_ctrls1.readRowHits                 2592135                       # Number of row buffer hits during reads
system.mem_ctrls1.writeRowHits                 445877                       # Number of row buffer hits during writes
system.mem_ctrls1.readRowHitRate                60.61                       # Row buffer hit rate for reads
system.mem_ctrls1.writeRowHitRate               32.61                       # Row buffer hit rate for writes
system.mem_ctrls1.avgGap                    355809.54                       # Average gap between requests
system.mem_ctrls1.pageHitRate                   53.83                       # Row buffer hit rate, read and write combined
system.mem_ctrls1_0.actEnergy              9364916820                       # Energy for activate commands per rank (pJ)
system.mem_ctrls1_0.preEnergy              4977548565                       # Energy for precharge commands per rank (pJ)
system.mem_ctrls1_0.readEnergy            15352028160                       # Energy for read commands per rank (pJ)
system.mem_ctrls1_0.writeEnergy            3609750060                       # Energy for write commands per rank (pJ)
system.mem_ctrls1_0.refreshEnergy        156046032480.000031                       # Energy for refresh commands per rank (pJ)
system.mem_ctrls1_0.actBackEnergy         96804966180                       # Energy for active background per rank (pJ)
system.mem_ctrls1_0.preBackEnergy          5590824000                       # Energy for precharge background per rank (pJ)
system.mem_ctrls1_0.actPowerDownEnergy   601016252460                       # Energy for active power-down per rank (pJ)
system.mem_ctrls1_0.prePowerDownEnergy   120015427680                       # Energy for precharge power-down per rank (pJ)
system.mem_ctrls1_0.selfRefreshEnergy     45303976590                       # Energy for self refresh per rank (pJ)
system.mem_ctrls1_0.totalEnergy          1058115834075                       # Total energy per rank (pJ)
system.mem_ctrls1_0.averagePower           526.884897                       # Core power per rank (mW)
system.mem_ctrls1_0.totalIdleTime        1781304612666                       # Total Idle time Per DRAM Rank
system.mem_ctrls1_0.memoryStateTime::IDLE   5802574149                       # Time in different power states
system.mem_ctrls1_0.memoryStateTime::REF  66111872000                       # Time in different power states
system.mem_ctrls1_0.memoryStateTime::SREF 150763336978                       # Time in different power states
system.mem_ctrls1_0.memoryStateTime::PRE_PDN 312532746923                       # Time in different power states
system.mem_ctrls1_0.memoryStateTime::ACT 155029364944                       # Time in different power states
system.mem_ctrls1_0.memoryStateTime::ACT_PDN 1318008646872                       # Time in different power states
system.mem_ctrls1_1.actEnergy              9238824420                       # Energy for activate commands per rank (pJ)
system.mem_ctrls1_1.preEnergy              4910532660                       # Energy for precharge commands per rank (pJ)
system.mem_ctrls1_1.readEnergy            15181503540                       # Energy for read commands per rank (pJ)
system.mem_ctrls1_1.writeEnergy            3526893000                       # Energy for write commands per rank (pJ)
system.mem_ctrls1_1.refreshEnergy        155571530400.000031                       # Energy for refresh commands per rank (pJ)
system.mem_ctrls1_1.actBackEnergy         97260281040                       # Energy for active background per rank (pJ)
system.mem_ctrls1_1.preBackEnergy          5630558880                       # Energy for precharge background per rank (pJ)
system.mem_ctrls1_1.actPowerDownEnergy   595381262670                       # Energy for active power-down per rank (pJ)
system.mem_ctrls1_1.prePowerDownEnergy   120669567840                       # Energy for precharge power-down per rank (pJ)
system.mem_ctrls1_1.selfRefreshEnergy     47865536340                       # Energy for self refresh per rank (pJ)
system.mem_ctrls1_1.totalEnergy          1055271534060                       # Total energy per rank (pJ)
system.mem_ctrls1_1.averagePower           525.468585                       # Core power per rank (mW)
system.mem_ctrls1_1.totalIdleTime        1780214079820                       # Total Idle time Per DRAM Rank
system.mem_ctrls1_1.memoryStateTime::IDLE   5979170167                       # Time in different power states
system.mem_ctrls1_1.memoryStateTime::REF  65913930000                       # Time in different power states
system.mem_ctrls1_1.memoryStateTime::SREF 160313232824                       # Time in different power states
system.mem_ctrls1_1.memoryStateTime::PRE_PDN 314242579933                       # Time in different power states
system.mem_ctrls1_1.memoryStateTime::ACT 156141125557                       # Time in different power states
system.mem_ctrls1_1.memoryStateTime::ACT_PDN 1305658503385                       # Time in different power states
system.pwrStateResidencyTicks::UNDEFINED 75278402342568                       # Cumulative time (in ticks) in various power states
system.cpu.branchPred.lookups                       2                       # Number of BP lookups
system.cpu.branchPred.condPredicted                 2                       # Number of conditional branches predicted
system.cpu.branchPred.condIncorrect                 1                       # Number of conditional branches incorrect
system.cpu.branchPred.BTBLookups                    0                       # Number of BTB lookups
system.cpu.branchPred.BTBHits                       0                       # Number of BTB hits
system.cpu.branchPred.BTBCorrect                    0                       # Number of correct BTB predictions (this stat may not work properly.
system.cpu.branchPred.BTBHitPct                   nan                       # BTB Hit Percentage
system.cpu.branchPred.usedRAS                       0                       # Number of times the RAS was used to get a target.
system.cpu.branchPred.RASInCorrect                  0                       # Number of incorrect RAS predictions.
system.cpu.branchPred.indirectLookups               0                       # Number of indirect predictor lookups.
system.cpu.branchPred.indirectHits                  0                       # Number of indirect target hits.
system.cpu.branchPred.indirectMisses                0                       # Number of indirect misses.
system.cpu.branchPredindirectMispredicted            0                       # Number of mispredicted indirect branches.
system.cpu_voltage_domain.voltage                   1                       # Voltage in Volts
system.cpu_clk_domain.clock                       333                       # Clock period in ticks
system.cpu.dtb.fetch_hits                           0                       # ITB hits
system.cpu.dtb.fetch_misses                         0                       # ITB misses
system.cpu.dtb.fetch_acv                            0                       # ITB acv
system.cpu.dtb.fetch_accesses                       0                       # ITB accesses
system.cpu.dtb.read_hits                           23                       # DTB read hits
system.cpu.dtb.read_misses                          0                       # DTB read misses
system.cpu.dtb.read_acv                             0                       # DTB read access violations
system.cpu.dtb.read_accesses                       23                       # DTB read accesses
system.cpu.dtb.write_hits                           3                       # DTB write hits
system.cpu.dtb.write_misses                         0                       # DTB write misses
system.cpu.dtb.write_acv                            0                       # DTB write access violations
system.cpu.dtb.write_accesses                       3                       # DTB write accesses
system.cpu.dtb.data_hits                           26                       # DTB hits
system.cpu.dtb.data_misses                          0                       # DTB misses
system.cpu.dtb.data_acv                             0                       # DTB access violations
system.cpu.dtb.data_accesses                       26                       # DTB accesses
system.cpu.itb.fetch_hits                           7                       # ITB hits
system.cpu.itb.fetch_misses                         0                       # ITB misses
system.cpu.itb.fetch_acv                            0                       # ITB acv
system.cpu.itb.fetch_accesses                       7                       # ITB accesses
system.cpu.itb.read_hits                            0                       # DTB read hits
system.cpu.itb.read_misses                          0                       # DTB read misses
system.cpu.itb.read_acv                             0                       # DTB read access violations
system.cpu.itb.read_accesses                        0                       # DTB read accesses
system.cpu.itb.write_hits                           0                       # DTB write hits
system.cpu.itb.write_misses                         0                       # DTB write misses
system.cpu.itb.write_acv                            0                       # DTB write access violations
system.cpu.itb.write_accesses                       0                       # DTB write accesses
system.cpu.itb.data_hits                            0                       # DTB hits
system.cpu.itb.data_misses                          0                       # DTB misses
system.cpu.itb.data_acv                             0                       # DTB access violations
system.cpu.itb.data_accesses                        0                       # DTB accesses
system.cpu.workload.num_syscalls                    0                       # Number of system calls
system.cpu.pwrStateResidencyTicks::ON    2008248541866                       # Cumulative time (in ticks) in various power states
system.cpu.numCycles                             1111                       # number of cpu cycles simulated
system.cpu.numWorkItemsStarted                      0                       # number of work items this cpu started
system.cpu.numWorkItemsCompleted                    0                       # number of work items this cpu completed
system.cpu.fetch.icacheStallCycles                 64                       # Number of cycles fetch is stalled on an Icache miss
system.cpu.fetch.Insts                             51                       # Number of instructions fetch has processed
system.cpu.fetch.Branches                           2                       # Number of branches that fetch encountered
system.cpu.fetch.Cycles                             7                       # Number of cycles fetch has run and was not squashing or blocked
system.cpu.fetch.SquashCycles                       5                       # Number of cycles fetch has spent squashing
system.cpu.fetch.PendingDrainCycles                10                       # Number of cycles fetch has spent waiting on pipes to drain
system.cpu.fetch.CacheLines                         7                       # Number of cache lines fetched
system.cpu.fetch.IcacheSquashes                     3                       # Number of outstanding Icache misses that were squashed
system.cpu.fetch.rateDist::samples                 83                       # Number of instructions fetched each cycle (Total)
system.cpu.fetch.rateDist::mean              0.614458                       # Number of instructions fetched each cycle (Total)
system.cpu.fetch.rateDist::stdev             2.076767                       # Number of instructions fetched each cycle (Total)
system.cpu.fetch.rateDist::underflows               0      0.00%      0.00% # Number of instructions fetched each cycle (Total)
system.cpu.fetch.rateDist::0                       76     91.57%     91.57% # Number of instructions fetched each cycle (Total)
system.cpu.fetch.rateDist::1                        0      0.00%     91.57% # Number of instructions fetched each cycle (Total)
system.cpu.fetch.rateDist::2                        0      0.00%     91.57% # Number of instructions fetched each cycle (Total)
system.cpu.fetch.rateDist::3                        0      0.00%     91.57% # Number of instructions fetched each cycle (Total)
[...]
system.switch_cpus_1.iq.int_inst_queue_writes    142182518                       # Number of integer instruction queue writes
system.switch_cpus_1.iq.int_inst_queue_wakeup_accesses    140180229                       # Number of integer instruction queue wakeup accesses
system.switch_cpus_1.iq.fp_inst_queue_reads    151023760                       # Number of floating instruction queue reads
system.switch_cpus_1.iq.fp_inst_queue_writes     62657083                       # Number of floating instruction queue writes
system.switch_cpus_1.iq.fp_inst_queue_wakeup_accesses     61348646                       # Number of floating instruction queue wakeup accesses
system.switch_cpus_1.iq.int_alu_accesses    154392334                       # Number of integer alu accesses
system.switch_cpus_1.iq.fp_alu_accesses      81338769                       # Number of floating point alu accesses
system.switch_cpus_1.iew.lsq.thread0.forwLoads      1448147                       # Number of loads that had data forwarded from stores
system.switch_cpus_1.iew.lsq.thread0.invAddrLoads            0                       # Number of loads ignored due to an invalid address
system.switch_cpus_1.iew.lsq.thread0.squashedLoads       803102                       # Number of loads squashed
system.switch_cpus_1.iew.lsq.thread0.ignoredResponses            0                       # Number of memory responses ignored because the instruction is squashed
system.switch_cpus_1.iew.lsq.thread0.memOrderViolation          370                       # Number of memory ordering violations
system.switch_cpus_1.iew.lsq.thread0.squashedStores       151786                       # Number of stores squashed
system.switch_cpus_1.iew.lsq.thread0.invAddrSwpfs            0                       # Number of software prefetches ignored due to an invalid address
system.switch_cpus_1.iew.lsq.thread0.blockedLoads            0                       # Number of blocked loads due to partial load-store forwarding
system.switch_cpus_1.iew.lsq.thread0.rescheduledLoads            0                       # Number of loads that were rescheduled
system.switch_cpus_1.iew.lsq.thread0.cacheBlocked     12196029                       # Number of times an access to memory failed due to the cache being blocked
system.switch_cpus_1.iew.iewIdleCycles              0                       # Number of cycles IEW is idle
system.switch_cpus_1.iew.iewSquashCycles        63514                       # Number of cycles IEW is squashing
system.switch_cpus_1.iew.iewBlockCycles      24906834                       # Number of cycles IEW is blocking
system.switch_cpus_1.iew.iewUnblockCycles     34991157                       # Number of cycles IEW is unblocking
system.switch_cpus_1.iew.iewDispatchedInsts    202487553                       # Number of instructions dispatched to IQ
system.switch_cpus_1.iew.iewDispSquashedInsts        66202                       # Number of squashed instructions skipped by dispatch
system.switch_cpus_1.iew.iewDispLoadInsts     68397501                       # Number of dispatched load instructions
system.switch_cpus_1.iew.iewDispStoreInsts     10464267                       # Number of dispatched store instructions
system.switch_cpus_1.iew.iewDispNonSpecInsts           86                       # Number of dispatched non-speculative instructions
system.switch_cpus_1.iew.iewIQFullEvents       230321                       # Number of times the IQ has become full, causing a stall
system.switch_cpus_1.iew.iewLSQFullEvents     34510300                       # Number of times the LSQ has become full, causing a stall
system.switch_cpus_1.iew.memOrderViolationEvents          370                       # Number of memory order violations
system.switch_cpus_1.iew.predictedTakenIncorrect        47596                       # Number of branches that were predicted taken incorrectly
system.switch_cpus_1.iew.predictedNotTakenIncorrect          437                       # Number of branches that were predicted not taken incorrectly
system.switch_cpus_1.iew.branchMispredicts        48033                       # Number of branch mispredicts detected at execute
system.switch_cpus_1.iew.iewExecutedInsts    213629013                       # Number of executed instructions
system.switch_cpus_1.iew.iewExecLoadInsts     80125815                       # Number of load instructions executed
system.switch_cpus_1.iew.iewExecSquashedInsts       114449                       # Number of squashed instructions skipped in execute
system.switch_cpus_1.iew.exec_swp                   0                       # number of swp insts executed
system.switch_cpus_1.iew.exec_nop               67894                       # number of nop insts executed
system.switch_cpus_1.iew.exec_refs           90480406                       # number of memory reference insts executed
system.switch_cpus_1.iew.exec_branches        5549934                       # Number of branches executed
system.switch_cpus_1.iew.exec_stores         10354591                       # Number of stores executed
system.switch_cpus_1.iew.exec_rate           0.743382                       # Inst execution rate
system.switch_cpus_1.iew.wb_sent            201663706                       # cumulative count of insts sent to commit
system.switch_cpus_1.iew.wb_count           201528875                       # cumulative count of insts written-back
system.switch_cpus_1.iew.wb_producers       139571932                       # num instructions producing a value
system.switch_cpus_1.iew.wb_consumers       153204532                       # num instructions consuming a value
system.switch_cpus_1.iew.wb_rate             0.701277                       # insts written-back per cycle
system.switch_cpus_1.iew.wb_fanout           0.911017                       # average fanout of values written-back
system.switch_cpus_1.commit.commitSquashedInsts      2364577                       # The number of squashed insts skipped by commit
system.switch_cpus_1.commit.commitNonSpecStalls          144                       # The number of times commit has been forced to stall to communicate backwards
system.switch_cpus_1.commit.branchMispredicts        47872                       # The number of times a branch was mispredicted
system.switch_cpus_1.commit.committed_per_cycle::samples    287039882                       # Number of insts commited each cycle
system.switch_cpus_1.commit.committed_per_cycle::mean     0.696972                       # Number of insts commited each cycle
system.switch_cpus_1.commit.committed_per_cycle::stdev     2.113290                       # Number of insts commited each cycle
system.switch_cpus_1.commit.committed_per_cycle::underflows            0      0.00%      0.00% # Number of insts commited each cycle
system.switch_cpus_1.commit.committed_per_cycle::0    251196762     87.51%     87.51% # Number of insts commited each cycle
system.switch_cpus_1.commit.committed_per_cycle::1      7464575      2.60%     90.11% # Number of insts commited each cycle
system.switch_cpus_1.commit.committed_per_cycle::2      1489975      0.52%     90.63% # Number of insts commited each cycle
system.switch_cpus_1.commit.committed_per_cycle::3      1592034      0.55%     91.19% # Number of insts commited each cycle
system.switch_cpus_1.commit.committed_per_cycle::4      2168430      0.76%     91.94% # Number of insts commited each cycle
system.switch_cpus_1.commit.committed_per_cycle::5      1491607      0.52%     92.46% # Number of insts commited each cycle
system.switch_cpus_1.commit.committed_per_cycle::6      1332942      0.46%     92.93% # Number of insts commited each cycle
system.switch_cpus_1.commit.committed_per_cycle::7      1719819      0.60%     93.53% # Number of insts commited each cycle
system.switch_cpus_1.commit.committed_per_cycle::8     18583738      6.47%    100.00% # Number of insts commited each cycle
system.switch_cpus_1.commit.committed_per_cycle::overflows            0      0.00%    100.00% # Number of insts commited each cycle
system.switch_cpus_1.commit.committed_per_cycle::min_value            0                       # Number of insts commited each cycle
system.switch_cpus_1.commit.committed_per_cycle::max_value            8                       # Number of insts commited each cycle
system.switch_cpus_1.commit.committed_per_cycle::total    287039882                       # Number of insts commited each cycle
system.switch_cpus_1.commit.committedInsts    200058671                       # Number of instructions committed
system.switch_cpus_1.commit.committedOps    200058671                       # Number of ops (including micro ops) committed
system.switch_cpus_1.commit.swp_count               0                       # Number of s/w prefetches committed
system.switch_cpus_1.commit.refs             77906848                       # Number of memory references committed
system.switch_cpus_1.commit.loads            67594371                       # Number of loads committed
system.switch_cpus_1.commit.membars                72                       # Number of memory barriers committed
system.switch_cpus_1.commit.branches          5447366                       # Number of branches committed
system.switch_cpus_1.commit.fp_insts         61032861                       # Number of committed floating point instructions.
system.switch_cpus_1.commit.int_insts       169602469                       # Number of committed integer instructions.
system.switch_cpus_1.commit.function_calls           74                       # Number of function calls committed.
system.switch_cpus_1.commit.op_class_0::No_OpClass        58667      0.03%      0.03% # Class of committed instruction
system.switch_cpus_1.commit.op_class_0::IntAlu     69024585     34.50%     34.53% # Class of committed instruction
system.switch_cpus_1.commit.op_class_0::IntMult     22692429     11.34%     45.87% # Class of committed instruction
system.switch_cpus_1.commit.op_class_0::IntDiv            0      0.00%     45.87% # Class of committed instruction
system.switch_cpus_1.commit.op_class_0::FloatAdd     15421069      7.71%     53.58% # Class of committed instruction
system.switch_cpus_1.commit.op_class_0::FloatCmp            0      0.00%     53.58% # Class of committed instruction
system.switch_cpus_1.commit.op_class_0::FloatCvt         3010      0.00%     53.58% # Class of committed instruction
system.switch_cpus_1.commit.op_class_0::FloatMult     13619855      6.81%     60.39% # Class of committed instruction
system.switch_cpus_1.commit.op_class_0::FloatMultAcc            0      0.00%     60.39% # Class of committed instruction
system.switch_cpus_1.commit.op_class_0::FloatDiv      1151536      0.58%     60.97% # Class of committed instruction
system.switch_cpus_1.commit.op_class_0::FloatMisc            0      0.00%     60.97% # Class of committed instruction
system.switch_cpus_1.commit.op_class_0::FloatSqrt       180600      0.09%     61.06% # Class of committed instruction
system.switch_cpus_1.commit.op_class_0::SimdAdd            0      0.00%     61.06% # Class of committed instruction
system.switch_cpus_1.commit.op_class_0::SimdAddAcc            0      0.00%     61.06% # Class of committed instruction
system.switch_cpus_1.commit.op_class_0::SimdAlu            0      0.00%     61.06% # Class of committed instruction
system.switch_cpus_1.commit.op_class_0::SimdCmp            0      0.00%     61.06% # Class of committed instruction
system.switch_cpus_1.commit.op_class_0::SimdCvt            0      0.00%     61.06% # Class of committed instruction
system.switch_cpus_1.commit.op_class_0::SimdMisc            0      0.00%     61.06% # Class of committed instruction
system.switch_cpus_1.commit.op_class_0::SimdMult            0      0.00%     61.06% # Class of committed instruction
system.switch_cpus_1.commit.op_class_0::SimdMultAcc            0      0.00%     61.06% # Class of committed instruction
system.switch_cpus_1.commit.op_class_0::SimdShift            0      0.00%     61.06% # Class of committed instruction
system.switch_cpus_1.commit.op_class_0::SimdShiftAcc            0      0.00%     61.06% # Class of committed instruction
system.switch_cpus_1.commit.op_class_0::SimdSqrt            0      0.00%     61.06% # Class of committed instruction
system.switch_cpus_1.commit.op_class_0::SimdFloatAdd            0      0.00%     61.06% # Class of committed instruction
system.switch_cpus_1.commit.op_class_0::SimdFloatAlu            0      0.00%     61.06% # Class of committed instruction
system.switch_cpus_1.commit.op_class_0::SimdFloatCmp            0      0.00%     61.06% # Class of committed instruction
system.switch_cpus_1.commit.op_class_0::SimdFloatCvt            0      0.00%     61.06% # Class of committed instruction
system.switch_cpus_1.commit.op_class_0::SimdFloatDiv            0      0.00%     61.06% # Class of committed instruction
system.switch_cpus_1.commit.op_class_0::SimdFloatMisc            0      0.00%     61.06% # Class of committed instruction
system.switch_cpus_1.commit.op_class_0::SimdFloatMult            0      0.00%     61.06% # Class of committed instruction
system.switch_cpus_1.commit.op_class_0::SimdFloatMultAcc            0      0.00%     61.06% # Class of committed instruction
system.switch_cpus_1.commit.op_class_0::SimdFloatSqrt            0      0.00%     61.06% # Class of committed instruction
system.switch_cpus_1.commit.op_class_0::MemRead     44149715     22.07%     83.13% # Class of committed instruction
system.switch_cpus_1.commit.op_class_0::MemWrite      3100414      1.55%     84.68% # Class of committed instruction
system.switch_cpus_1.commit.op_class_0::FloatMemRead     23444728     11.72%     96.40% # Class of committed instruction
system.switch_cpus_1.commit.op_class_0::FloatMemWrite      7212063      3.60%    100.00% # Class of committed instruction
system.switch_cpus_1.commit.op_class_0::IprAccess            0      0.00%    100.00% # Class of committed instruction
system.switch_cpus_1.commit.op_class_0::InstPrefetch            0      0.00%    100.00% # Class of committed instruction
system.switch_cpus_1.commit.op_class_0::total    200058671                       # Class of committed instruction
system.switch_cpus_1.commit.bw_lim_events     18583738                       # number cycles where commit BW limit reached
system.switch_cpus_1.rob.rob_reads          470680219                       # The number of ROB reads
system.switch_cpus_1.rob.rob_writes         405166304                       # The number of ROB writes
system.switch_cpus_1.timesIdled                   103                       # Number of times that the entire CPU went into an idle state and unscheduled itself
system.switch_cpus_1.idleCycles                 14717                       # Total number of cycles that the CPU has spent unscheduled due to idling
system.switch_cpus_1.committedInsts         200000004                       # Number of Instructions Simulated
system.switch_cpus_1.committedOps           200000004                       # Number of Ops (including micro ops) Simulated
system.switch_cpus_1.cpi                     1.436872                       # CPI: Cycles Per Instruction
system.switch_cpus_1.cpi_total               1.436872                       # CPI: Total CPI of All Threads
system.switch_cpus_1.ipc                     0.695956                       # IPC: Instructions Per Cycle
system.switch_cpus_1.ipc_total               0.695956                       # IPC: Total IPC of All Threads
system.switch_cpus_1.int_regfile_reads      260164171                       # number of integer regfile reads
system.switch_cpus_1.int_regfile_writes     131551665                       # number of integer regfile writes
system.switch_cpus_1.fp_regfile_reads        68055569                       # number of floating regfile reads
system.switch_cpus_1.fp_regfile_writes       54127369                       # number of floating regfile writes
system.switch_cpus_1.misc_regfile_reads           162                       # number of misc regfile reads
system.switch_cpus_1.misc_regfile_writes          144                       # number of misc regfile writes
system.tol3bus.snoop_filter.tot_requests     21501560                       # Total number of requests made to the snoop filter.
system.tol3bus.snoop_filter.hit_single_requests     10748473                       # Number of requests hitting in the snoop filter with a single holder of the requested data.
system.tol3bus.snoop_filter.hit_multi_requests            0                       # Number of requests hitting in the snoop filter with multiple (>1) holders of the requested data.
system.tol3bus.snoop_filter.tot_snoops          53567                       # Total number of snoops made to the snoop filter.
system.tol3bus.snoop_filter.hit_single_snoops        53567                       # Number of snoops hitting in the snoop filter with a single holder of the requested data.
system.tol3bus.snoop_filter.hit_multi_snoops            0                       # Number of snoops hitting in the snoop filter with multiple (>1) holders of the requested data.
system.tol3bus.pwrStateResidencyTicks::UNDEFINED 75278402342568                       # Cumulative time (in ticks) in various power states
system.tol3bus.trans_dist::ReadResp           8306217                       # Transaction distribution
system.tol3bus.trans_dist::WritebackDirty      6020544                       # Transaction distribution
system.tol3bus.trans_dist::CleanEvict        13217790                       # Transaction distribution
system.tol3bus.trans_dist::ReadExReq          2446870                       # Transaction distribution
system.tol3bus.trans_dist::ReadExResp         2446868                       # Transaction distribution
system.tol3bus.trans_dist::ReadSharedReq      8306217                       # Transaction distribution
system.tol3bus.pkt_count_system.cpu.l2.mem_side::system.l3.cpu_side     32254645                       # Packet count per connected master and slave (bytes)
system.tol3bus.pkt_size_system.cpu.l2.mem_side::system.l3.cpu_side    898510272                       # Cumulative packet size per connected master and slave (bytes)
system.tol3bus.snoops                         8489861                       # Total snoops (count)
system.tol3bus.snoopTraffic                 175001984                       # Total snoop traffic (bytes)
system.tol3bus.snoop_fanout::samples         19242948                       # Request fanout histogram
system.tol3bus.snoop_fanout::mean            0.002784                       # Request fanout histogram
system.tol3bus.snoop_fanout::stdev           0.052687                       # Request fanout histogram
system.tol3bus.snoop_fanout::underflows             0      0.00%      0.00% # Request fanout histogram
system.tol3bus.snoop_fanout::0               19189381     99.72%     99.72% # Request fanout histogram
system.tol3bus.snoop_fanout::1                  53567      0.28%    100.00% # Request fanout histogram
system.tol3bus.snoop_fanout::overflows              0      0.00%    100.00% # Request fanout histogram
system.tol3bus.snoop_fanout::min_value              0                       # Request fanout histogram
system.tol3bus.snoop_fanout::max_value              1                       # Request fanout histogram
system.tol3bus.snoop_fanout::total           19242948                       # Request fanout histogram
system.tol3bus.reqLayer0.occupancy         8254303434                       # Layer occupancy (ticks)
system.tol3bus.reqLayer0.utilization              0.4                       # Layer utilization (%)
system.tol3bus.respLayer0.occupancy        7161554610                       # Layer occupancy (ticks)
system.tol3bus.respLayer0.utilization             0.4                       # Layer utilization (%)

---------- End Simulation Statistics   ----------
