
---------- Begin Simulation Statistics ----------
sim_seconds                                  3.788147                       # Number of seconds simulated
sim_ticks                                3788146967427                       # Number of ticks simulated
final_tick                               73818119548773                       # Number of ticks from beginning of simulation (restored from checkpoints and never reset)
sim_freq                                 1000000000000                       # Frequency of simulated ticks
host_inst_rate                                 236306                       # Simulator instruction rate (inst/s)
host_op_rate                                   236306                       # Simulator op (including micro ops) rate (op/s)
host_tick_rate                              745968176                       # Simulator tick rate (ticks/s)
host_mem_usage                                2504244                       # Number of bytes of host memory used
host_seconds                                  5078.16                       # Real time elapsed on the host
sim_insts                                  1200000014                       # Number of instructions simulated
sim_ops                                    1200000014                       # Number of ops (including micro ops) simulated
system.voltage_domain.voltage                       1                       # Voltage in Volts
system.clk_domain.clock                          1000                       # Clock period in ticks
system.mem_ctrls0.pwrStateResidencyTicks::UNDEFINED 73818119548773                       # Cumulative time (in ticks) in various power states
system.mem_ctrls0.bytes_read::cpu.inst             64                       # Number of bytes read from this memory
system.mem_ctrls0.bytes_read::cpu.data            128                       # Number of bytes read from this memory
system.mem_ctrls0.bytes_read::switch_cpus.inst       135168                       # Number of bytes read from this memory
system.mem_ctrls0.bytes_read::switch_cpus.data    415024832                       # Number of bytes read from this memory
system.mem_ctrls0.bytes_read::switch_cpus_1.inst        37952                       # Number of bytes read from this memory
system.mem_ctrls0.bytes_read::switch_cpus_1.data     88398912                       # Number of bytes read from this memory
system.mem_ctrls0.bytes_read::total         503597056                       # Number of bytes read from this memory
system.mem_ctrls0.bytes_inst_read::cpu.inst           64                       # Number of instructions bytes read from this memory
system.mem_ctrls0.bytes_inst_read::switch_cpus.inst       135168                       # Number of instructions bytes read from this memory
system.mem_ctrls0.bytes_inst_read::switch_cpus_1.inst        37952                       # Number of instructions bytes read from this memory
system.mem_ctrls0.bytes_inst_read::total       173184                       # Number of instructions bytes read from this memory
system.mem_ctrls0.bytes_written::writebacks    167630272                       # Number of bytes written to this memory
system.mem_ctrls0.bytes_written::total      167630272                       # Number of bytes written to this memory
system.mem_ctrls0.num_reads::cpu.inst               1                       # Number of read requests responded to by this memory
system.mem_ctrls0.num_reads::cpu.data               2                       # Number of read requests responded to by this memory
system.mem_ctrls0.num_reads::switch_cpus.inst         2112                       # Number of read requests responded to by this memory
system.mem_ctrls0.num_reads::switch_cpus.data      6484763                       # Number of read requests responded to by this memory
system.mem_ctrls0.num_reads::switch_cpus_1.inst          593                       # Number of read requests responded to by this memory
system.mem_ctrls0.num_reads::switch_cpus_1.data      1381233                       # Number of read requests responded to by this memory
system.mem_ctrls0.num_reads::total            7868704                       # Number of read requests responded to by this memory
system.mem_ctrls0.num_writes::writebacks      2619223                       # Number of write requests responded to by this memory
system.mem_ctrls0.num_writes::total           2619223                       # Number of write requests responded to by this memory
system.mem_ctrls0.bw_read::cpu.inst                17                       # Total read bandwidth from this memory (bytes/s)
system.mem_ctrls0.bw_read::cpu.data                34                       # Total read bandwidth from this memory (bytes/s)
system.mem_ctrls0.bw_read::switch_cpus.inst        35682                       # Total read bandwidth from this memory (bytes/s)
system.mem_ctrls0.bw_read::switch_cpus.data    109558799                       # Total read bandwidth from this memory (bytes/s)
system.mem_ctrls0.bw_read::switch_cpus_1.inst        10019                       # Total read bandwidth from this memory (bytes/s)
system.mem_ctrls0.bw_read::switch_cpus_1.data     23335661                       # Total read bandwidth from this memory (bytes/s)
system.mem_ctrls0.bw_read::total            132940211                       # Total read bandwidth from this memory (bytes/s)
system.mem_ctrls0.bw_inst_read::cpu.inst           17                       # Instruction read bandwidth from this memory (bytes/s)
system.mem_ctrls0.bw_inst_read::switch_cpus.inst        35682                       # Instruction read bandwidth from this memory (bytes/s)
system.mem_ctrls0.bw_inst_read::switch_cpus_1.inst        10019                       # Instruction read bandwidth from this memory (bytes/s)
system.mem_ctrls0.bw_inst_read::total           45717                       # Instruction read bandwidth from this memory (bytes/s)
system.mem_ctrls0.bw_write::writebacks       44251259                       # Write bandwidth from this memory (bytes/s)
system.mem_ctrls0.bw_write::total            44251259                       # Write bandwidth from this memory (bytes/s)
system.mem_ctrls0.bw_total::writebacks       44251259                       # Total bandwidth to/from this memory (bytes/s)
system.mem_ctrls0.bw_total::cpu.inst               17                       # Total bandwidth to/from this memory (bytes/s)
system.mem_ctrls0.bw_total::cpu.data               34                       # Total bandwidth to/from this memory (bytes/s)
system.mem_ctrls0.bw_total::switch_cpus.inst        35682                       # Total bandwidth to/from this memory (bytes/s)
system.mem_ctrls0.bw_total::switch_cpus.data    109558799                       # Total bandwidth to/from this memory (bytes/s)
system.mem_ctrls0.bw_total::switch_cpus_1.inst        10019                       # Total bandwidth to/from this memory (bytes/s)
system.mem_ctrls0.bw_total::switch_cpus_1.data     23335661                       # Total bandwidth to/from this memory (bytes/s)
system.mem_ctrls0.bw_total::total           177191470                       # Total bandwidth to/from this memory (bytes/s)
system.mem_ctrls0.readReqs                    7868704                       # Number of read requests accepted
system.mem_ctrls0.writeReqs                   2619223                       # Number of write requests accepted
system.mem_ctrls0.readBursts                  7868704                       # Number of DRAM read bursts, including those serviced by the write queue
system.mem_ctrls0.writeBursts                 2619223                       # Number of DRAM write bursts, including those merged in the write queue
system.mem_ctrls0.bytesReadDRAM             503119808                       # Total number of bytes read from DRAM
system.mem_ctrls0.bytesReadWrQ                 477248                       # Total number of bytes read from write queue
system.mem_ctrls0.bytesWritten              167629312                       # Total number of bytes written to DRAM
system.mem_ctrls0.bytesReadSys              503597056                       # Total read bytes from the system interface side
system.mem_ctrls0.bytesWrittenSys           167630272                       # Total written bytes from the system interface side
system.mem_ctrls0.servicedByWrQ                  7457                       # Number of DRAM read bursts serviced by the write queue
system.mem_ctrls0.mergedWrBursts                    0                       # Number of DRAM write bursts merged with an existing one
system.mem_ctrls0.neitherReadNorWriteReqs            0                       # Number of requests that are neither read nor write
system.mem_ctrls0.perBankRdBursts::0           516346                       # Per bank write bursts
system.mem_ctrls0.perBankRdBursts::1           501551                       # Per bank write bursts
system.mem_ctrls0.perBankRdBursts::2           489784                       # Per bank write bursts
system.mem_ctrls0.perBankRdBursts::3           494104                       # Per bank write bursts
system.mem_ctrls0.perBankRdBursts::4           487602                       # Per bank write bursts
system.mem_ctrls0.perBankRdBursts::5           503601                       # Per bank write bursts
system.mem_ctrls0.perBankRdBursts::6           482346                       # Per bank write bursts
system.mem_ctrls0.perBankRdBursts::7           494632                       # Per bank write bursts
system.mem_ctrls0.perBankRdBursts::8           496629                       # Per bank write bursts
system.mem_ctrls0.perBankRdBursts::9           487059                       # Per bank write bursts
system.mem_ctrls0.perBankRdBursts::10          478304                       # Per bank write bursts
system.mem_ctrls0.perBankRdBursts::11          487134                       # Per bank write bursts
system.mem_ctrls0.perBankRdBursts::12          476535                       # Per bank write bursts
system.mem_ctrls0.perBankRdBursts::13          477684                       # Per bank write bursts
system.mem_ctrls0.perBankRdBursts::14          484633                       # Per bank write bursts
system.mem_ctrls0.perBankRdBursts::15          503303                       # Per bank write bursts
system.mem_ctrls0.perBankWrBursts::0           174072                       # Per bank write bursts
system.mem_ctrls0.perBankWrBursts::1           163362                       # Per bank write bursts
system.mem_ctrls0.perBankWrBursts::2           166715                       # Per bank write bursts
system.mem_ctrls0.perBankWrBursts::3           164602                       # Per bank write bursts
system.mem_ctrls0.perBankWrBursts::4           161968                       # Per bank write bursts
system.mem_ctrls0.perBankWrBursts::5           165325                       # Per bank write bursts
system.mem_ctrls0.perBankWrBursts::6           160900                       # Per bank write bursts
system.mem_ctrls0.perBankWrBursts::7           161881                       # Per bank write bursts
system.mem_ctrls0.perBankWrBursts::8           161767                       # Per bank write bursts
system.mem_ctrls0.perBankWrBursts::9           158229                       # Per bank write bursts
system.mem_ctrls0.perBankWrBursts::10          157476                       # Per bank write bursts
system.mem_ctrls0.perBankWrBursts::11          156559                       # Per bank write bursts
system.mem_ctrls0.perBankWrBursts::12          155410                       # Per bank write bursts
system.mem_ctrls0.perBankWrBursts::13          163066                       # Per bank write bursts
system.mem_ctrls0.perBankWrBursts::14          171762                       # Per bank write bursts
system.mem_ctrls0.perBankWrBursts::15          176114                       # Per bank write bursts
system.mem_ctrls0.numRdRetry                        0                       # Number of times read queue was full causing retry
system.mem_ctrls0.numWrRetry                        0                       # Number of times write queue was full causing retry
system.mem_ctrls0.totGap                 3788146055340                       # Total gap between requests
system.mem_ctrls0.readPktSize::0                    0                       # Read request sizes (log2)
system.mem_ctrls0.readPktSize::1                    0                       # Read request sizes (log2)
system.mem_ctrls0.readPktSize::2                    0                       # Read request sizes (log2)
system.mem_ctrls0.readPktSize::3                    0                       # Read request sizes (log2)
system.mem_ctrls0.readPktSize::4                    0                       # Read request sizes (log2)
system.mem_ctrls0.readPktSize::5                    0                       # Read request sizes (log2)
system.mem_ctrls0.readPktSize::6              7868704                       # Read request sizes (log2)
system.mem_ctrls0.writePktSize::0                   0                       # Write request sizes (log2)
system.mem_ctrls0.writePktSize::1                   0                       # Write request sizes (log2)
system.mem_ctrls0.writePktSize::2                   0                       # Write request sizes (log2)
system.mem_ctrls0.writePktSize::3                   0                       # Write request sizes (log2)
system.mem_ctrls0.writePktSize::4                   0                       # Write request sizes (log2)
system.mem_ctrls0.writePktSize::5                   0                       # Write request sizes (log2)
system.mem_ctrls0.writePktSize::6             2619223                       # Write request sizes (log2)
system.mem_ctrls0.rdQLenPdf::0                7495686                       # What read queue length does an incoming req see
system.mem_ctrls0.rdQLenPdf::1                 314615                       # What read queue length does an incoming req see
system.mem_ctrls0.rdQLenPdf::2                  47301                       # What read queue length does an incoming req see
system.mem_ctrls0.rdQLenPdf::3                   3644                       # What read queue length does an incoming req see
system.mem_ctrls0.rdQLenPdf::4                      1                       # What read queue length does an incoming req see
system.mem_ctrls0.rdQLenPdf::5                      0                       # What read queue length does an incoming req see
system.mem_ctrls0.rdQLenPdf::6                      0                       # What read queue length does an incoming req see
system.mem_ctrls0.rdQLenPdf::7                      0                       # What read queue length does an incoming req see
system.mem_ctrls0.rdQLenPdf::8                      0                       # What read queue length does an incoming req see
system.mem_ctrls0.rdQLenPdf::9                      0                       # What read queue length does an incoming req see
system.mem_ctrls0.rdQLenPdf::10                     0                       # What read queue length does an incoming req see
system.mem_ctrls0.rdQLenPdf::11                     0                       # What read queue length does an incoming req see
system.mem_ctrls0.rdQLenPdf::12                     0                       # What read queue length does an incoming req see
system.mem_ctrls0.rdQLenPdf::13                     0                       # What read queue length does an incoming req see
system.mem_ctrls0.rdQLenPdf::14                     0                       # What read queue length does an incoming req see
system.mem_ctrls0.rdQLenPdf::15                     0                       # What read queue length does an incoming req see
system.mem_ctrls0.rdQLenPdf::16                     0                       # What read queue length does an incoming req see
system.mem_ctrls0.rdQLenPdf::17                     0                       # What read queue length does an incoming req see
system.mem_ctrls0.rdQLenPdf::18                     0                       # What read queue length does an incoming req see
system.mem_ctrls0.rdQLenPdf::19                     0                       # What read queue length does an incoming req see
system.mem_ctrls0.rdQLenPdf::20                     0                       # What read queue length does an incoming req see
system.mem_ctrls0.rdQLenPdf::21                     0                       # What read queue length does an incoming req see
system.mem_ctrls0.rdQLenPdf::22                     0                       # What read queue length does an incoming req see
system.mem_ctrls0.rdQLenPdf::23                     0                       # What read queue length does an incoming req see
system.mem_ctrls0.rdQLenPdf::24                     0                       # What read queue length does an incoming req see
system.mem_ctrls0.rdQLenPdf::25                     0                       # What read queue length does an incoming req see
system.mem_ctrls0.rdQLenPdf::26                     0                       # What read queue length does an incoming req see
system.mem_ctrls0.rdQLenPdf::27                     0                       # What read queue length does an incoming req see
system.mem_ctrls0.rdQLenPdf::28                     0                       # What read queue length does an incoming req see
system.mem_ctrls0.rdQLenPdf::29                     0                       # What read queue length does an incoming req see
system.mem_ctrls0.rdQLenPdf::30                     0                       # What read queue length does an incoming req see
system.mem_ctrls0.rdQLenPdf::31                     0                       # What read queue length does an incoming req see
system.mem_ctrls0.wrQLenPdf::0                      2                       # What write queue length does an incoming req see
system.mem_ctrls0.wrQLenPdf::1                      2                       # What write queue length does an incoming req see
system.mem_ctrls0.wrQLenPdf::2                      2                       # What write queue length does an incoming req see
system.mem_ctrls0.wrQLenPdf::3                      2                       # What write queue length does an incoming req see
system.mem_ctrls0.wrQLenPdf::4                      2                       # What write queue length does an incoming req see
system.mem_ctrls0.wrQLenPdf::5                      2                       # What write queue length does an incoming req see
system.mem_ctrls0.wrQLenPdf::6                      2                       # What write queue length does an incoming req see
system.mem_ctrls0.wrQLenPdf::7                      2                       # What write queue length does an incoming req see
system.mem_ctrls0.wrQLenPdf::8                      2                       # What write queue length does an incoming req see
system.mem_ctrls0.wrQLenPdf::9                      2                       # What write queue length does an incoming req see
system.mem_ctrls0.wrQLenPdf::10                     2                       # What write queue length does an incoming req see
system.mem_ctrls0.wrQLenPdf::11                     2                       # What write queue length does an incoming req see
system.mem_ctrls0.wrQLenPdf::12                     2                       # What write queue length does an incoming req see
system.mem_ctrls0.wrQLenPdf::13                     2                       # What write queue length does an incoming req see
system.mem_ctrls0.wrQLenPdf::14                     2                       # What write queue length does an incoming req see
system.mem_ctrls0.wrQLenPdf::15                120050                       # What write queue length does an incoming req see
system.mem_ctrls0.wrQLenPdf::16                124323                       # What write queue length does an incoming req see
system.mem_ctrls0.wrQLenPdf::17                145903                       # What write queue length does an incoming req see
system.mem_ctrls0.wrQLenPdf::18                148081                       # What write queue length does an incoming req see
system.mem_ctrls0.wrQLenPdf::19                148461                       # What write queue length does an incoming req see
system.mem_ctrls0.wrQLenPdf::20                148538                       # What write queue length does an incoming req see
system.mem_ctrls0.wrQLenPdf::21                148703                       # What write queue length does an incoming req see
system.mem_ctrls0.wrQLenPdf::22                149412                       # What write queue length does an incoming req see
system.mem_ctrls0.wrQLenPdf::23                149913                       # What write queue length does an incoming req see
system.mem_ctrls0.wrQLenPdf::24                148866                       # What write queue length does an incoming req see
system.mem_ctrls0.wrQLenPdf::25                148521                       # What write queue length does an incoming req see
system.mem_ctrls0.wrQLenPdf::26                148473                       # What write queue length does an incoming req see
system.mem_ctrls0.wrQLenPdf::27                148359                       # What write queue length does an incoming req see
system.mem_ctrls0.wrQLenPdf::28                148358                       # What write queue length does an incoming req see
system.mem_ctrls0.wrQLenPdf::29                148442                       # What write queue length does an incoming req see
system.mem_ctrls0.wrQLenPdf::30                148888                       # What write queue length does an incoming req see
system.mem_ctrls0.wrQLenPdf::31                147903                       # What write queue length does an incoming req see
system.mem_ctrls0.wrQLenPdf::32                147857                       # What write queue length does an incoming req see
system.mem_ctrls0.wrQLenPdf::33                   113                       # What write queue length does an incoming req see
system.mem_ctrls0.wrQLenPdf::34                    24                       # What write queue length does an incoming req see
system.mem_ctrls0.wrQLenPdf::35                     4                       # What write queue length does an incoming req see
system.mem_ctrls0.wrQLenPdf::36                     1                       # What write queue length does an incoming req see
system.mem_ctrls0.wrQLenPdf::37                     0                       # What write queue length does an incoming req see
system.mem_ctrls0.wrQLenPdf::38                     0                       # What write queue length does an incoming req see
system.mem_ctrls0.wrQLenPdf::39                     0                       # What write queue length does an incoming req see
system.mem_ctrls0.wrQLenPdf::40                     0                       # What write queue length does an incoming req see
system.mem_ctrls0.wrQLenPdf::41                     0                       # What write queue length does an incoming req see
system.mem_ctrls0.wrQLenPdf::42                     0                       # What write queue length does an incoming req see
system.mem_ctrls0.wrQLenPdf::43                     0                       # What write queue length does an incoming req see
system.mem_ctrls0.wrQLenPdf::44                     0                       # What write queue length does an incoming req see
system.mem_ctrls0.wrQLenPdf::45                     0                       # What write queue length does an incoming req see
system.mem_ctrls0.wrQLenPdf::46                     0                       # What write queue length does an incoming req see
system.mem_ctrls0.wrQLenPdf::47                     0                       # What write queue length does an incoming req see
system.mem_ctrls0.wrQLenPdf::48                     0                       # What write queue length does an incoming req see
system.mem_ctrls0.wrQLenPdf::49                     0                       # What write queue length does an incoming req see
system.mem_ctrls0.wrQLenPdf::50                     0                       # What write queue length does an incoming req see
system.mem_ctrls0.wrQLenPdf::51                     0                       # What write queue length does an incoming req see
system.mem_ctrls0.wrQLenPdf::52                     0                       # What write queue length does an incoming req see
system.mem_ctrls0.wrQLenPdf::53                     0                       # What write queue length does an incoming req see
system.mem_ctrls0.wrQLenPdf::54                     0                       # What write queue length does an incoming req see
system.mem_ctrls0.wrQLenPdf::55                     0                       # What write queue length does an incoming req see
system.mem_ctrls0.wrQLenPdf::56                     0                       # What write queue length does an incoming req see
system.mem_ctrls0.wrQLenPdf::57                     0                       # What write queue length does an incoming req see
system.mem_ctrls0.wrQLenPdf::58                     0                       # What write queue length does an incoming req see
system.mem_ctrls0.wrQLenPdf::59                     0                       # What write queue length does an incoming req see
system.mem_ctrls0.wrQLenPdf::60                     0                       # What write queue length does an incoming req see
system.mem_ctrls0.wrQLenPdf::61                     0                       # What write queue length does an incoming req see
system.mem_ctrls0.wrQLenPdf::62                     0                       # What write queue length does an incoming req see
system.mem_ctrls0.wrQLenPdf::63                     0                       # What write queue length does an incoming req see
system.mem_ctrls0.bytesPerActivate::samples      4850328                       # Bytes accessed per row activation
system.mem_ctrls0.bytesPerActivate::mean   138.289317                       # Bytes accessed per row activation
system.mem_ctrls0.bytesPerActivate::gmean    97.809409                       # Bytes accessed per row activation
system.mem_ctrls0.bytesPerActivate::stdev   170.051880                       # Bytes accessed per row activation
system.mem_ctrls0.bytesPerActivate::0-127      3190124     65.77%     65.77% # Bytes accessed per row activation
system.mem_ctrls0.bytesPerActivate::128-255      1016470     20.96%     86.73% # Bytes accessed per row activation
system.mem_ctrls0.bytesPerActivate::256-383       262939      5.42%     92.15% # Bytes accessed per row activation
system.mem_ctrls0.bytesPerActivate::384-511       115219      2.38%     94.52% # Bytes accessed per row activation
system.mem_ctrls0.bytesPerActivate::512-639        78440      1.62%     96.14% # Bytes accessed per row activation
system.mem_ctrls0.bytesPerActivate::640-767        60688      1.25%     97.39% # Bytes accessed per row activation
system.mem_ctrls0.bytesPerActivate::768-895        45527      0.94%     98.33% # Bytes accessed per row activation
system.mem_ctrls0.bytesPerActivate::896-1023        31636      0.65%     98.98% # Bytes accessed per row activation
system.mem_ctrls0.bytesPerActivate::1024-1151        49285      1.02%    100.00% # Bytes accessed per row activation
system.mem_ctrls0.bytesPerActivate::total      4850328                       # Bytes accessed per row activation
system.mem_ctrls0.rdPerTurnAround::samples       147809                       # Reads before turning the bus around for writes
system.mem_ctrls0.rdPerTurnAround::mean     53.185144                       # Reads before turning the bus around for writes
system.mem_ctrls0.rdPerTurnAround::stdev   116.926605                       # Reads before turning the bus around for writes
system.mem_ctrls0.rdPerTurnAround::0-1023       147651     99.89%     99.89% # Reads before turning the bus around for writes
system.mem_ctrls0.rdPerTurnAround::1024-2047          115      0.08%     99.97% # Reads before turning the bus around for writes
system.mem_ctrls0.rdPerTurnAround::2048-3071           34      0.02%     99.99% # Reads before turning the bus around for writes
system.mem_ctrls0.rdPerTurnAround::3072-4095            8      0.01%    100.00% # Reads before turning the bus around for writes
system.mem_ctrls0.rdPerTurnAround::30720-31743            1      0.00%    100.00% # Reads before turning the bus around for writes
system.mem_ctrls0.rdPerTurnAround::total       147809                       # Reads before turning the bus around for writes
system.mem_ctrls0.wrPerTurnAround::samples       147809                       # Writes before turning the bus around for reads
system.mem_ctrls0.wrPerTurnAround::mean     17.720220                       # Writes before turning the bus around for reads
system.mem_ctrls0.wrPerTurnAround::gmean    17.700629                       # Writes before turning the bus around for reads
system.mem_ctrls0.wrPerTurnAround::stdev     0.818067                       # Writes before turning the bus around for reads
system.mem_ctrls0.wrPerTurnAround::16           23728     16.05%     16.05% # Writes before turning the bus around for reads
system.mem_ctrls0.wrPerTurnAround::17            3435      2.32%     18.38% # Writes before turning the bus around for reads
system.mem_ctrls0.wrPerTurnAround::18          112189     75.90%     94.28% # Writes before turning the bus around for reads
system.mem_ctrls0.wrPerTurnAround::19            7553      5.11%     99.39% # Writes before turning the bus around for reads
system.mem_ctrls0.wrPerTurnAround::20             764      0.52%     99.91% # Writes before turning the bus around for reads
system.mem_ctrls0.wrPerTurnAround::21             113      0.08%     99.98% # Writes before turning the bus around for reads
system.mem_ctrls0.wrPerTurnAround::22              19      0.01%     99.99% # Writes before turning the bus around for reads
system.mem_ctrls0.wrPerTurnAround::23               7      0.00%    100.00% # Writes before turning the bus around for reads
system.mem_ctrls0.wrPerTurnAround::24               1      0.00%    100.00% # Writes before turning the bus around for reads
system.mem_ctrls0.wrPerTurnAround::total       147809                       # Writes before turning the bus around for reads
system.mem_ctrls0.totQLat                154622892951                       # Total ticks spent queuing
system.mem_ctrls0.totMemAccLat           302021274201                       # Total ticks spent from burst creation until serviced by the DRAM
system.mem_ctrls0.totBusLat               39306235000                       # Total ticks spent in databus transfers
system.mem_ctrls0.avgQLat                    19669.00                       # Average queueing delay per DRAM burst
system.mem_ctrls0.avgBusLat                   5000.00                       # Average bus latency per DRAM burst
system.mem_ctrls0.avgMemAccLat               38419.00                       # Average memory access latency per DRAM burst
system.mem_ctrls0.avgRdBW                      132.81                       # Average DRAM read bandwidth in MiByte/s
system.mem_ctrls0.avgWrBW                       44.25                       # Average achieved write bandwidth in MiByte/s
system.mem_ctrls0.avgRdBWSys                   132.94                       # Average system read bandwidth in MiByte/s
system.mem_ctrls0.avgWrBWSys                    44.25                       # Average system write bandwidth in MiByte/s
system.mem_ctrls0.peakBW                     12800.00                       # Theoretical peak bandwidth in MiByte/s
system.mem_ctrls0.busUtil                        1.38                       # Data bus utilization in percentage
system.mem_ctrls0.busUtilRead                    1.04                       # Data bus utilization in percentage for reads
system.mem_ctrls0.busUtilWrite                   0.35                       # Data bus utilization in percentage for writes
system.mem_ctrls0.avgRdQLen                      1.03                       # Average read queue length when enqueuing
system.mem_ctrls0.avgWrQLen                     24.56                       # Average write queue length when enqueuing
system.mem_ctrls0.readRowHits                 4990557                       # Number of row buffer hits during reads
system.mem_ctrls0.writeRowHits                 639564                       # Number of row buffer hits during writes
system.mem_ctrls0.readRowHitRate                63.48                       # Row buffer hit rate for reads
system.mem_ctrls0.writeRowHitRate               24.42                       # Row buffer hit rate for writes
system.mem_ctrls0.avgGap                    361191.12                       # Average gap between requests
system.mem_ctrls0.pageHitRate                   53.72                       # Row buffer hit rate, read and write combined
system.mem_ctrls0_0.actEnergy             17357375700                       # Energy for activate commands per rank (pJ)
system.mem_ctrls0_0.preEnergy              9225645000                       # Energy for precharge commands per rank (pJ)
system.mem_ctrls0_0.readEnergy            28345557240                       # Energy for read commands per rank (pJ)
system.mem_ctrls0_0.writeEnergy            6884266500                       # Energy for write commands per rank (pJ)
system.mem_ctrls0_0.refreshEnergy        287011065120.000061                       # Energy for refresh commands per rank (pJ)
system.mem_ctrls0_0.actBackEnergy        172176186450                       # Energy for active background per rank (pJ)
system.mem_ctrls0_0.preBackEnergy          7939620000                       # Energy for precharge background per rank (pJ)
system.mem_ctrls0_0.actPowerDownEnergy   1193065154910                       # Energy for active power-down per rank (pJ)
system.mem_ctrls0_0.prePowerDownEnergy   187527472800                       # Energy for precharge power-down per rank (pJ)
system.mem_ctrls0_0.selfRefreshEnergy     78598032435                       # Energy for self refresh per rank (pJ)
system.mem_ctrls0_0.totalEnergy          1988271737655                       # Total energy per rank (pJ)
system.mem_ctrls0_0.averagePower           524.866572                       # Core power per rank (mW)
system.mem_ctrls0_0.totalIdleTime        3389590079360                       # Total Idle time Per DRAM Rank
system.mem_ctrls0_0.memoryStateTime::IDLE   7525930832                       # Time in different power states
system.mem_ctrls0_0.memoryStateTime::REF 121535560000                       # Time in different power states
system.mem_ctrls0_0.memoryStateTime::SREF 284853166372                       # Time in different power states
system.mem_ctrls0_0.memoryStateTime::PRE_PDN 488354913963                       # Time in different power states
system.mem_ctrls0_0.memoryStateTime::ACT 269494685056                       # Time in different power states
system.mem_ctrls0_0.memoryStateTime::ACT_PDN 2616382711204                       # Time in different power states
system.mem_ctrls0_1.actEnergy             17274009060                       # Energy for activate commands per rank (pJ)
system.mem_ctrls0_1.preEnergy              9181349760                       # Energy for precharge commands per rank (pJ)
system.mem_ctrls0_1.readEnergy            27783746340                       # Energy for read commands per rank (pJ)
system.mem_ctrls0_1.writeEnergy            6787999260                       # Energy for write commands per rank (pJ)
system.mem_ctrls0_1.refreshEnergy        285748594560.000061                       # Energy for refresh commands per rank (pJ)
system.mem_ctrls0_1.actBackEnergy        172049746200                       # Energy for active background per rank (pJ)
system.mem_ctrls0_1.preBackEnergy          7973112480                       # Energy for precharge background per rank (pJ)
system.mem_ctrls0_1.actPowerDownEnergy   1183338635010                       # Energy for active power-down per rank (pJ)
system.mem_ctrls0_1.prePowerDownEnergy   187722162240                       # Energy for precharge power-down per rank (pJ)
system.mem_ctrls0_1.selfRefreshEnergy     84020051880                       # Energy for self refresh per rank (pJ)
system.mem_ctrls0_1.totalEnergy          1982003997990                       # Total energy per rank (pJ)
system.mem_ctrls0_1.averagePower           523.212007                       # Core power per rank (mW)
system.mem_ctrls0_1.totalIdleTime        3389803651669                       # Total Idle time Per DRAM Rank
system.mem_ctrls0_1.memoryStateTime::IDLE   7724407947                       # Time in different power states
system.mem_ctrls0_1.memoryStateTime::REF 121004100000                       # Time in different power states
system.mem_ctrls0_1.memoryStateTime::SREF 305903506785                       # Time in different power states
system.mem_ctrls0_1.memoryStateTime::PRE_PDN 488857777333                       # Time in different power states
system.mem_ctrls0_1.memoryStateTime::ACT 269613436655                       # Time in different power states
system.mem_ctrls0_1.memoryStateTime::ACT_PDN 2595043738707                       # Time in different power states
system.mem_ctrls1.pwrStateResidencyTicks::UNDEFINED 73818119548773                       # Cumulative time (in ticks) in various power states
system.mem_ctrls1.bytes_read::cpu.inst             64                       # Number of bytes read from this memory
system.mem_ctrls1.bytes_read::switch_cpus.inst       119680                       # Number of bytes read from this memory
system.mem_ctrls1.bytes_read::switch_cpus.data    415668800                       # Number of bytes read from this memory
system.mem_ctrls1.bytes_read::switch_cpus_1.inst        36672                       # Number of bytes read from this memory
system.mem_ctrls1.bytes_read::switch_cpus_1.data     88518656                       # Number of bytes read from this memory
system.mem_ctrls1.bytes_read::total         504343872                       # Number of bytes read from this memory
system.mem_ctrls1.bytes_inst_read::cpu.inst           64                       # Number of instructions bytes read from this memory
system.mem_ctrls1.bytes_inst_read::switch_cpus.inst       119680                       # Number of instructions bytes read from this memory
system.mem_ctrls1.bytes_inst_read::switch_cpus_1.inst        36672                       # Number of instructions bytes read from this memory
system.mem_ctrls1.bytes_inst_read::total       156416                       # Number of instructions bytes read from this memory
system.mem_ctrls1.bytes_written::writebacks    167698304                       # Number of bytes written to this memory
system.mem_ctrls1.bytes_written::total      167698304                       # Number of bytes written to this memory
system.mem_ctrls1.num_reads::cpu.inst               1                       # Number of read requests responded to by this memory
system.mem_ctrls1.num_reads::switch_cpus.inst         1870                       # Number of read requests responded to by this memory
system.mem_ctrls1.num_reads::switch_cpus.data      6494825                       # Number of read requests responded to by this memory
system.mem_ctrls1.num_reads::switch_cpus_1.inst          573                       # Number of read requests responded to by this memory
system.mem_ctrls1.num_reads::switch_cpus_1.data      1383104                       # Number of read requests responded to by this memory
system.mem_ctrls1.num_reads::total            7880373                       # Number of read requests responded to by this memory
system.mem_ctrls1.num_writes::writebacks      2620286                       # Number of write requests responded to by this memory
system.mem_ctrls1.num_writes::total           2620286                       # Number of write requests responded to by this memory
system.mem_ctrls1.bw_read::cpu.inst                17                       # Total read bandwidth from this memory (bytes/s)
system.mem_ctrls1.bw_read::switch_cpus.inst        31593                       # Total read bandwidth from this memory (bytes/s)
system.mem_ctrls1.bw_read::switch_cpus.data    109728794                       # Total read bandwidth from this memory (bytes/s)
system.mem_ctrls1.bw_read::switch_cpus_1.inst         9681                       # Total read bandwidth from this memory (bytes/s)
system.mem_ctrls1.bw_read::switch_cpus_1.data     23367271                       # Total read bandwidth from this memory (bytes/s)
system.mem_ctrls1.bw_read::total            133137356                       # Total read bandwidth from this memory (bytes/s)
system.mem_ctrls1.bw_inst_read::cpu.inst           17                       # Instruction read bandwidth from this memory (bytes/s)
system.mem_ctrls1.bw_inst_read::switch_cpus.inst        31593                       # Instruction read bandwidth from this memory (bytes/s)
system.mem_ctrls1.bw_inst_read::switch_cpus_1.inst         9681                       # Instruction read bandwidth from this memory (bytes/s)
system.mem_ctrls1.bw_inst_read::total           41291                       # Instruction read bandwidth from this memory (bytes/s)
system.mem_ctrls1.bw_write::writebacks       44269218                       # Write bandwidth from this memory (bytes/s)
system.mem_ctrls1.bw_write::total            44269218                       # Write bandwidth from this memory (bytes/s)
system.mem_ctrls1.bw_total::writebacks       44269218                       # Total bandwidth to/from this memory (bytes/s)
system.mem_ctrls1.bw_total::cpu.inst               17                       # Total bandwidth to/from this memory (bytes/s)
system.mem_ctrls1.bw_total::switch_cpus.inst        31593                       # Total bandwidth to/from this memory (bytes/s)
system.mem_ctrls1.bw_total::switch_cpus.data    109728794                       # Total bandwidth to/from this memory (bytes/s)
system.mem_ctrls1.bw_total::switch_cpus_1.inst         9681                       # Total bandwidth to/from this memory (bytes/s)
system.mem_ctrls1.bw_total::switch_cpus_1.data     23367271                       # Total bandwidth to/from this memory (bytes/s)
system.mem_ctrls1.bw_total::total           177406574                       # Total bandwidth to/from this memory (bytes/s)
system.mem_ctrls1.readReqs                    7880373                       # Number of read requests accepted
system.mem_ctrls1.writeReqs                   2620286                       # Number of write requests accepted
system.mem_ctrls1.readBursts                  7880373                       # Number of DRAM read bursts, including those serviced by the write queue
system.mem_ctrls1.writeBursts                 2620286                       # Number of DRAM write bursts, including those merged in the write queue
system.mem_ctrls1.bytesReadDRAM             503855872                       # Total number of bytes read from DRAM
system.mem_ctrls1.bytesReadWrQ                 488000                       # Total number of bytes read from write queue
system.mem_ctrls1.bytesWritten              167697280                       # Total number of bytes written to DRAM
system.mem_ctrls1.bytesReadSys              504343872                       # Total read bytes from the system interface side
system.mem_ctrls1.bytesWrittenSys           167698304                       # Total written bytes from the system interface side
system.mem_ctrls1.servicedByWrQ                  7625                       # Number of DRAM read bursts serviced by the write queue
system.mem_ctrls1.mergedWrBursts                    0                       # Number of DRAM write bursts merged with an existing one
system.mem_ctrls1.neitherReadNorWriteReqs            0                       # Number of requests that are neither read nor write
system.mem_ctrls1.perBankRdBursts::0           516304                       # Per bank write bursts
system.mem_ctrls1.perBankRdBursts::1           500796                       # Per bank write bursts
system.mem_ctrls1.perBankRdBursts::2           490776                       # Per bank write bursts
system.mem_ctrls1.perBankRdBursts::3           497530                       # Per bank write bursts
system.mem_ctrls1.perBankRdBursts::4           491007                       # Per bank write bursts
system.mem_ctrls1.perBankRdBursts::5           504464                       # Per bank write bursts
system.mem_ctrls1.perBankRdBursts::6           484504                       # Per bank write bursts
system.mem_ctrls1.perBankRdBursts::7           491474                       # Per bank write bursts
system.mem_ctrls1.perBankRdBursts::8           500831                       # Per bank write bursts
system.mem_ctrls1.perBankRdBursts::9           482418                       # Per bank write bursts
system.mem_ctrls1.perBankRdBursts::10          483105                       # Per bank write bursts
system.mem_ctrls1.perBankRdBursts::11          487460                       # Per bank write bursts
system.mem_ctrls1.perBankRdBursts::12          477592                       # Per bank write bursts
system.mem_ctrls1.perBankRdBursts::13          482908                       # Per bank write bursts
system.mem_ctrls1.perBankRdBursts::14          481556                       # Per bank write bursts
system.mem_ctrls1.perBankRdBursts::15          500023                       # Per bank write bursts
system.mem_ctrls1.perBankWrBursts::0           174116                       # Per bank write bursts
system.mem_ctrls1.perBankWrBursts::1           163349                       # Per bank write bursts
system.mem_ctrls1.perBankWrBursts::2           166621                       # Per bank write bursts
system.mem_ctrls1.perBankWrBursts::3           165506                       # Per bank write bursts
system.mem_ctrls1.perBankWrBursts::4           162462                       # Per bank write bursts
system.mem_ctrls1.perBankWrBursts::5           164923                       # Per bank write bursts
system.mem_ctrls1.perBankWrBursts::6           160859                       # Per bank write bursts
system.mem_ctrls1.perBankWrBursts::7           161846                       # Per bank write bursts
system.mem_ctrls1.perBankWrBursts::8           161759                       # Per bank write bursts
system.mem_ctrls1.perBankWrBursts::9           157928                       # Per bank write bursts
system.mem_ctrls1.perBankWrBursts::10          157884                       # Per bank write bursts
system.mem_ctrls1.perBankWrBursts::11          157421                       # Per bank write bursts
system.mem_ctrls1.perBankWrBursts::12          155539                       # Per bank write bursts
system.mem_ctrls1.perBankWrBursts::13          162521                       # Per bank write bursts
system.mem_ctrls1.perBankWrBursts::14          171957                       # Per bank write bursts
system.mem_ctrls1.perBankWrBursts::15          175579                       # Per bank write bursts
system.mem_ctrls1.numRdRetry                        0                       # Number of times read queue was full causing retry
system.mem_ctrls1.numWrRetry                        0                       # Number of times write queue was full causing retry
system.mem_ctrls1.totGap                 3788146866528                       # Total gap between requests
system.mem_ctrls1.readPktSize::0                    0                       # Read request sizes (log2)
system.mem_ctrls1.readPktSize::1                    0                       # Read request sizes (log2)
system.mem_ctrls1.readPktSize::2                    0                       # Read request sizes (log2)
system.mem_ctrls1.readPktSize::3                    0                       # Read request sizes (log2)
system.mem_ctrls1.readPktSize::4                    0                       # Read request sizes (log2)
system.mem_ctrls1.readPktSize::5                    0                       # Read request sizes (log2)
system.mem_ctrls1.readPktSize::6              7880373                       # Read request sizes (log2)
system.mem_ctrls1.writePktSize::0                   0                       # Write request sizes (log2)
system.mem_ctrls1.writePktSize::1                   0                       # Write request sizes (log2)
system.mem_ctrls1.writePktSize::2                   0                       # Write request sizes (log2)
system.mem_ctrls1.writePktSize::3                   0                       # Write request sizes (log2)
system.mem_ctrls1.writePktSize::4                   0                       # Write request sizes (log2)
system.mem_ctrls1.writePktSize::5                   0                       # Write request sizes (log2)
system.mem_ctrls1.writePktSize::6             2620286                       # Write request sizes (log2)
system.mem_ctrls1.rdQLenPdf::0                7506913                       # What read queue length does an incoming req see
system.mem_ctrls1.rdQLenPdf::1                 315561                       # What read queue length does an incoming req see
system.mem_ctrls1.rdQLenPdf::2                  46701                       # What read queue length does an incoming req see
system.mem_ctrls1.rdQLenPdf::3                   3573                       # What read queue length does an incoming req see
system.mem_ctrls1.rdQLenPdf::4                      0                       # What read queue length does an incoming req see
system.mem_ctrls1.rdQLenPdf::5                      0                       # What read queue length does an incoming req see
system.mem_ctrls1.rdQLenPdf::6                      0                       # What read queue length does an incoming req see
system.mem_ctrls1.rdQLenPdf::7                      0                       # What read queue length does an incoming req see
system.mem_ctrls1.rdQLenPdf::8                      0                       # What read queue length does an incoming req see
system.mem_ctrls1.rdQLenPdf::9                      0                       # What read queue length does an incoming req see
system.mem_ctrls1.rdQLenPdf::10                     0                       # What read queue length does an incoming req see
system.mem_ctrls1.rdQLenPdf::11                     0                       # What read queue length does an incoming req see
system.mem_ctrls1.rdQLenPdf::12                     0                       # What read queue length does an incoming req see
system.mem_ctrls1.rdQLenPdf::13                     0                       # What read queue length does an incoming req see
system.mem_ctrls1.rdQLenPdf::14                     0                       # What read queue length does an incoming req see
system.mem_ctrls1.rdQLenPdf::15                     0                       # What read queue length does an incoming req see
system.mem_ctrls1.rdQLenPdf::16                     0                       # What read queue length does an incoming req see
system.mem_ctrls1.rdQLenPdf::17                     0                       # What read queue length does an incoming req see
system.mem_ctrls1.rdQLenPdf::18                     0                       # What read queue length does an incoming req see
system.mem_ctrls1.rdQLenPdf::19                     0                       # What read queue length does an incoming req see
system.mem_ctrls1.rdQLenPdf::20                     0                       # What read queue length does an incoming req see
system.mem_ctrls1.rdQLenPdf::21                     0                       # What read queue length does an incoming req see
system.mem_ctrls1.rdQLenPdf::22                     0                       # What read queue length does an incoming req see
system.mem_ctrls1.rdQLenPdf::23                     0                       # What read queue length does an incoming req see
system.mem_ctrls1.rdQLenPdf::24                     0                       # What read queue length does an incoming req see
system.mem_ctrls1.rdQLenPdf::25                     0                       # What read queue length does an incoming req see
system.mem_ctrls1.rdQLenPdf::26                     0                       # What read queue length does an incoming req see
system.mem_ctrls1.rdQLenPdf::27                     0                       # What read queue length does an incoming req see
system.mem_ctrls1.rdQLenPdf::28                     0                       # What read queue length does an incoming req see
system.mem_ctrls1.rdQLenPdf::29                     0                       # What read queue length does an incoming req see
system.mem_ctrls1.rdQLenPdf::30                     0                       # What read queue length does an incoming req see
system.mem_ctrls1.rdQLenPdf::31                     0                       # What read queue length does an incoming req see
system.mem_ctrls1.wrQLenPdf::0                      2                       # What write queue length does an incoming req see
system.mem_ctrls1.wrQLenPdf::1                      2                       # What write queue length does an incoming req see
system.mem_ctrls1.wrQLenPdf::2                      2                       # What write queue length does an incoming req see
system.mem_ctrls1.wrQLenPdf::3                      2                       # What write queue length does an incoming req see
system.mem_ctrls1.wrQLenPdf::4                      2                       # What write queue length does an incoming req see
system.mem_ctrls1.wrQLenPdf::5                      2                       # What write queue length does an incoming req see
system.mem_ctrls1.wrQLenPdf::6                      2                       # What write queue length does an incoming req see
system.mem_ctrls1.wrQLenPdf::7                      2                       # What write queue length does an incoming req see
system.mem_ctrls1.wrQLenPdf::8                      2                       # What write queue length does an incoming req see
system.mem_ctrls1.wrQLenPdf::9                      2                       # What write queue length does an incoming req see
system.mem_ctrls1.wrQLenPdf::10                     2                       # What write queue length does an incoming req see
system.mem_ctrls1.wrQLenPdf::11                     2                       # What write queue length does an incoming req see
system.mem_ctrls1.wrQLenPdf::12                     2                       # What write queue length does an incoming req see
system.mem_ctrls1.wrQLenPdf::13                     2                       # What write queue length does an incoming req see
system.mem_ctrls1.wrQLenPdf::14                     2                       # What write queue length does an incoming req see
system.mem_ctrls1.wrQLenPdf::15                120129                       # What write queue length does an incoming req see
system.mem_ctrls1.wrQLenPdf::16                124378                       # What write queue length does an incoming req see
system.mem_ctrls1.wrQLenPdf::17                145966                       # What write queue length does an incoming req see
system.mem_ctrls1.wrQLenPdf::18                148160                       # What write queue length does an incoming req see
system.mem_ctrls1.wrQLenPdf::19                148521                       # What write queue length does an incoming req see
system.mem_ctrls1.wrQLenPdf::20                148585                       # What write queue length does an incoming req see
system.mem_ctrls1.wrQLenPdf::21                148706                       # What write queue length does an incoming req see
system.mem_ctrls1.wrQLenPdf::22                149486                       # What write queue length does an incoming req see
system.mem_ctrls1.wrQLenPdf::23                150005                       # What write queue length does an incoming req see
system.mem_ctrls1.wrQLenPdf::24                148976                       # What write queue length does an incoming req see
system.mem_ctrls1.wrQLenPdf::25                148569                       # What write queue length does an incoming req see
system.mem_ctrls1.wrQLenPdf::26                148497                       # What write queue length does an incoming req see
system.mem_ctrls1.wrQLenPdf::27                148413                       # What write queue length does an incoming req see
system.mem_ctrls1.wrQLenPdf::28                148486                       # What write queue length does an incoming req see
system.mem_ctrls1.wrQLenPdf::29                148481                       # What write queue length does an incoming req see
system.mem_ctrls1.wrQLenPdf::30                148890                       # What write queue length does an incoming req see
system.mem_ctrls1.wrQLenPdf::31                147959                       # What write queue length does an incoming req see
system.mem_ctrls1.wrQLenPdf::32                147900                       # What write queue length does an incoming req see
system.mem_ctrls1.wrQLenPdf::33                   121                       # What write queue length does an incoming req see
system.mem_ctrls1.wrQLenPdf::34                    24                       # What write queue length does an incoming req see
system.mem_ctrls1.wrQLenPdf::35                     3                       # What write queue length does an incoming req see
system.mem_ctrls1.wrQLenPdf::36                     1                       # What write queue length does an incoming req see
system.mem_ctrls1.wrQLenPdf::37                     0                       # What write queue length does an incoming req see
system.mem_ctrls1.wrQLenPdf::38                     0                       # What write queue length does an incoming req see
system.mem_ctrls1.wrQLenPdf::39                     0                       # What write queue length does an incoming req see
system.mem_ctrls1.wrQLenPdf::40                     0                       # What write queue length does an incoming req see
system.mem_ctrls1.wrQLenPdf::41                     0                       # What write queue length does an incoming req see
system.mem_ctrls1.wrQLenPdf::42                     0                       # What write queue length does an incoming req see
system.mem_ctrls1.wrQLenPdf::43                     0                       # What write queue length does an incoming req see
system.mem_ctrls1.wrQLenPdf::44                     0                       # What write queue length does an incoming req see
system.mem_ctrls1.wrQLenPdf::45                     0                       # What write queue length does an incoming req see
system.mem_ctrls1.wrQLenPdf::46                     0                       # What write queue length does an incoming req see
system.mem_ctrls1.wrQLenPdf::47                     0                       # What write queue length does an incoming req see
system.mem_ctrls1.wrQLenPdf::48                     0                       # What write queue length does an incoming req see
system.mem_ctrls1.wrQLenPdf::49                     0                       # What write queue length does an incoming req see
system.mem_ctrls1.wrQLenPdf::50                     0                       # What write queue length does an incoming req see
system.mem_ctrls1.wrQLenPdf::51                     0                       # What write queue length does an incoming req see
system.mem_ctrls1.wrQLenPdf::52                     0                       # What write queue length does an incoming req see
system.mem_ctrls1.wrQLenPdf::53                     0                       # What write queue length does an incoming req see
system.mem_ctrls1.wrQLenPdf::54                     0                       # What write queue length does an incoming req see
system.mem_ctrls1.wrQLenPdf::55                     0                       # What write queue length does an incoming req see
system.mem_ctrls1.wrQLenPdf::56                     0                       # What write queue length does an incoming req see
system.mem_ctrls1.wrQLenPdf::57                     0                       # What write queue length does an incoming req see
system.mem_ctrls1.wrQLenPdf::58                     0                       # What write queue length does an incoming req see
system.mem_ctrls1.wrQLenPdf::59                     0                       # What write queue length does an incoming req see
system.mem_ctrls1.wrQLenPdf::60                     0                       # What write queue length does an incoming req see
system.mem_ctrls1.wrQLenPdf::61                     0                       # What write queue length does an incoming req see
system.mem_ctrls1.wrQLenPdf::62                     0                       # What write queue length does an incoming req see
system.mem_ctrls1.wrQLenPdf::63                     0                       # What write queue length does an incoming req see
system.mem_ctrls1.bytesPerActivate::samples      4855789                       # Bytes accessed per row activation
system.mem_ctrls1.bytesPerActivate::mean   138.299400                       # Bytes accessed per row activation
system.mem_ctrls1.bytesPerActivate::gmean    97.851830                       # Bytes accessed per row activation
system.mem_ctrls1.bytesPerActivate::stdev   169.980716                       # Bytes accessed per row activation
system.mem_ctrls1.bytesPerActivate::0-127      3190624     65.71%     65.71% # Bytes accessed per row activation
system.mem_ctrls1.bytesPerActivate::128-255      1020114     21.01%     86.72% # Bytes accessed per row activation
system.mem_ctrls1.bytesPerActivate::256-383       265612      5.47%     92.19% # Bytes accessed per row activation
system.mem_ctrls1.bytesPerActivate::384-511       114230      2.35%     94.54% # Bytes accessed per row activation
system.mem_ctrls1.bytesPerActivate::512-639        77590      1.60%     96.14% # Bytes accessed per row activation
system.mem_ctrls1.bytesPerActivate::640-767        60752      1.25%     97.39% # Bytes accessed per row activation
system.mem_ctrls1.bytesPerActivate::768-895        45739      0.94%     98.33% # Bytes accessed per row activation
system.mem_ctrls1.bytesPerActivate::896-1023        32060      0.66%     98.99% # Bytes accessed per row activation
system.mem_ctrls1.bytesPerActivate::1024-1151        49068      1.01%    100.00% # Bytes accessed per row activation
system.mem_ctrls1.bytesPerActivate::total      4855789                       # Bytes accessed per row activation
system.mem_ctrls1.rdPerTurnAround::samples       147857                       # Reads before turning the bus around for writes
system.mem_ctrls1.rdPerTurnAround::mean     53.245663                       # Reads before turning the bus around for writes
system.mem_ctrls1.rdPerTurnAround::stdev   116.911224                       # Reads before turning the bus around for writes
system.mem_ctrls1.rdPerTurnAround::0-1023       147698     99.89%     99.89% # Reads before turning the bus around for writes
system.mem_ctrls1.rdPerTurnAround::1024-2047          120      0.08%     99.97% # Reads before turning the bus around for writes
system.mem_ctrls1.rdPerTurnAround::2048-3071           30      0.02%     99.99% # Reads before turning the bus around for writes
system.mem_ctrls1.rdPerTurnAround::3072-4095            8      0.01%    100.00% # Reads before turning the bus around for writes
system.mem_ctrls1.rdPerTurnAround::30720-31743            1      0.00%    100.00% # Reads before turning the bus around for writes
system.mem_ctrls1.rdPerTurnAround::total       147857                       # Reads before turning the bus around for writes
system.mem_ctrls1.wrPerTurnAround::samples       147857                       # Writes before turning the bus around for reads
system.mem_ctrls1.wrPerTurnAround::mean     17.721650                       # Writes before turning the bus around for reads
system.mem_ctrls1.wrPerTurnAround::gmean    17.702052                       # Writes before turning the bus around for reads
system.mem_ctrls1.wrPerTurnAround::stdev     0.818257                       # Writes before turning the bus around for reads
system.mem_ctrls1.wrPerTurnAround::16           23691     16.02%     16.02% # Writes before turning the bus around for reads
system.mem_ctrls1.wrPerTurnAround::17            3426      2.32%     18.34% # Writes before turning the bus around for reads
system.mem_ctrls1.wrPerTurnAround::18          112174     75.87%     94.21% # Writes before turning the bus around for reads
system.mem_ctrls1.wrPerTurnAround::19            7649      5.17%     99.38% # Writes before turning the bus around for reads
system.mem_ctrls1.wrPerTurnAround::20             783      0.53%     99.91% # Writes before turning the bus around for reads
system.mem_ctrls1.wrPerTurnAround::21             110      0.07%     99.98% # Writes before turning the bus around for reads
system.mem_ctrls1.wrPerTurnAround::22              16      0.01%     99.99% # Writes before turning the bus around for reads
system.mem_ctrls1.wrPerTurnAround::23               6      0.00%    100.00% # Writes before turning the bus around for reads
system.mem_ctrls1.wrPerTurnAround::24               1      0.00%    100.00% # Writes before turning the bus around for reads
system.mem_ctrls1.wrPerTurnAround::25               1      0.00%    100.00% # Writes before turning the bus around for reads
system.mem_ctrls1.wrPerTurnAround::total       147857                       # Writes before turning the bus around for reads
system.mem_ctrls1.totQLat                154885384068                       # Total ticks spent queuing
system.mem_ctrls1.totMemAccLat           302499409068                       # Total ticks spent from burst creation until serviced by the DRAM
system.mem_ctrls1.totBusLat               39363740000                       # Total ticks spent in databus transfers
system.mem_ctrls1.avgQLat                    19673.61                       # Average queueing delay per DRAM burst
system.mem_ctrls1.avgBusLat                   5000.00                       # Average bus latency per DRAM burst
system.mem_ctrls1.avgMemAccLat               38423.61                       # Average memory access latency per DRAM burst
system.mem_ctrls1.avgRdBW                      133.01                       # Average DRAM read bandwidth in MiByte/s
system.mem_ctrls1.avgWrBW                       44.27                       # Average achieved write bandwidth in MiByte/s
system.mem_ctrls1.avgRdBWSys                   133.14                       # Average system read bandwidth in MiByte/s
system.mem_ctrls1.avgWrBWSys                    44.27                       # Average system write bandwidth in MiByte/s
system.mem_ctrls1.peakBW                     12800.00                       # Theoretical peak bandwidth in MiByte/s
system.mem_ctrls1.busUtil                        1.38                       # Data bus utilization in percentage
system.mem_ctrls1.busUtilRead                    1.04                       # Data bus utilization in percentage for reads
system.mem_ctrls1.busUtilWrite                   0.35                       # Data bus utilization in percentage for writes
system.mem_ctrls1.avgRdQLen                      1.03                       # Average read queue length when enqueuing
system.mem_ctrls1.avgWrQLen                     24.55                       # Average write queue length when enqueuing
system.mem_ctrls1.readRowHits                 4995691                       # Number of row buffer hits during reads
system.mem_ctrls1.writeRowHits                 641533                       # Number of row buffer hits during writes
system.mem_ctrls1.readRowHitRate                63.46                       # Row buffer hit rate for reads
system.mem_ctrls1.writeRowHitRate               24.48                       # Row buffer hit rate for writes
system.mem_ctrls1.avgGap                    360753.25                       # Average gap between requests
system.mem_ctrls1.pageHitRate                   53.72                       # Row buffer hit rate, read and write combined
system.mem_ctrls1_0.actEnergy             17378567220                       # Energy for activate commands per rank (pJ)
system.mem_ctrls1_0.preEnergy              9236912355                       # Energy for precharge commands per rank (pJ)
system.mem_ctrls1_0.readEnergy            28394744700                       # Energy for read commands per rank (pJ)
system.mem_ctrls1_0.writeEnergy            6888740040                       # Energy for write commands per rank (pJ)
system.mem_ctrls1_0.refreshEnergy        287360180640.000061                       # Energy for refresh commands per rank (pJ)
system.mem_ctrls1_0.actBackEnergy        172052794560                       # Energy for active background per rank (pJ)
system.mem_ctrls1_0.preBackEnergy          7963474560                       # Energy for precharge background per rank (pJ)
system.mem_ctrls1_0.actPowerDownEnergy   1195764236580                       # Energy for active power-down per rank (pJ)
system.mem_ctrls1_0.prePowerDownEnergy   186892448640                       # Energy for precharge power-down per rank (pJ)
system.mem_ctrls1_0.selfRefreshEnergy     77652519615                       # Energy for self refresh per rank (pJ)
system.mem_ctrls1_0.totalEnergy          1989720536880                       # Total energy per rank (pJ)
system.mem_ctrls1_0.averagePower           525.249028                       # Core power per rank (mW)
system.mem_ctrls1_0.totalIdleTime        3389796734269                       # Total Idle time Per DRAM Rank
system.mem_ctrls1_0.memoryStateTime::IDLE   7553374415                       # Time in different power states
system.mem_ctrls1_0.memoryStateTime::REF 121682550000                       # Time in different power states
system.mem_ctrls1_0.memoryStateTime::SREF 280808294872                       # Time in different power states
system.mem_ctrls1_0.memoryStateTime::PRE_PDN 486700805616                       # Time in different power states
system.mem_ctrls1_0.memoryStateTime::ACT 269113803218                       # Time in different power states
system.mem_ctrls1_0.memoryStateTime::ACT_PDN 2622288139306                       # Time in different power states
system.mem_ctrls1_1.actEnergy             17291801940                       # Energy for activate commands per rank (pJ)
system.mem_ctrls1_1.preEnergy              9190806900                       # Energy for precharge commands per rank (pJ)
system.mem_ctrls1_1.readEnergy            27816676020                       # Energy for read commands per rank (pJ)
system.mem_ctrls1_1.writeEnergy            6789069360                       # Energy for write commands per rank (pJ)
system.mem_ctrls1_1.refreshEnergy        285661315680.000061                       # Energy for refresh commands per rank (pJ)
system.mem_ctrls1_1.actBackEnergy        171638134380                       # Energy for active background per rank (pJ)
system.mem_ctrls1_1.preBackEnergy          7966873920                       # Energy for precharge background per rank (pJ)
system.mem_ctrls1_1.actPowerDownEnergy   1183711726230                       # Energy for active power-down per rank (pJ)
system.mem_ctrls1_1.prePowerDownEnergy   187163062560                       # Energy for precharge power-down per rank (pJ)
system.mem_ctrls1_1.selfRefreshEnergy     84430503015                       # Energy for self refresh per rank (pJ)
system.mem_ctrls1_1.totalEnergy          1981791763245                       # Total energy per rank (pJ)
system.mem_ctrls1_1.averagePower           523.155982                       # Core power per rank (mW)
system.mem_ctrls1_1.totalIdleTime        3390713586768                       # Total Idle time Per DRAM Rank
system.mem_ctrls1_1.memoryStateTime::IDLE   7724403993                       # Time in different power states
system.mem_ctrls1_1.memoryStateTime::REF 120966964000                       # Time in different power states
system.mem_ctrls1_1.memoryStateTime::SREF 307444174007                       # Time in different power states
system.mem_ctrls1_1.memoryStateTime::PRE_PDN 487406857511                       # Time in different power states
system.mem_ctrls1_1.memoryStateTime::ACT 268741890230                       # Time in different power states
system.mem_ctrls1_1.memoryStateTime::ACT_PDN 2595862677686                       # Time in different power states
system.pwrStateResidencyTicks::UNDEFINED 73818119548773                       # Cumulative time (in ticks) in various power states
system.cpu.branchPred.lookups                       1                       # Number of BP lookups
system.cpu.branchPred.condPredicted                 1                       # Number of conditional branches predicted
system.cpu.branchPred.condIncorrect                 0                       # Number of conditional branches incorrect
system.cpu.branchPred.BTBLookups                    0                       # Number of BTB lookups
system.cpu.branchPred.BTBHits                       0                       # Number of BTB hits
system.cpu.branchPred.BTBCorrect                    0                       # Number of correct BTB predictions (this stat may not work properly.
system.cpu.branchPred.BTBHitPct                   nan                       # BTB Hit Percentage
system.cpu.branchPred.usedRAS                       0                       # Number of times the RAS was used to get a target.
system.cpu.branchPred.RASInCorrect                  0                       # Number of incorrect RAS predictions.
system.cpu.branchPred.indirectLookups               0                       # Number of indirect predictor lookups.
system.cpu.branchPred.indirectHits                  0                       # Number of indirect target hits.
system.cpu.branchPred.indirectMisses                0                       # Number of indirect misses.
system.cpu.branchPredindirectMispredicted            0                       # Number of mispredicted indirect branches.
system.cpu_voltage_domain.voltage                   1                       # Voltage in Volts
system.cpu_clk_domain.clock                       333                       # Clock period in ticks
system.cpu.dtb.fetch_hits                           0                       # ITB hits
system.cpu.dtb.fetch_misses                         0                       # ITB misses
system.cpu.dtb.fetch_acv                            0                       # ITB acv
system.cpu.dtb.fetch_accesses                       0                       # ITB accesses
system.cpu.dtb.read_hits                            2                       # DTB read hits
system.cpu.dtb.read_misses                          0                       # DTB read misses
system.cpu.dtb.read_acv                             0                       # DTB read access violations
system.cpu.dtb.read_accesses                        2                       # DTB read accesses
system.cpu.dtb.write_hits                           0                       # DTB write hits
system.cpu.dtb.write_misses                         0                       # DTB write misses
system.cpu.dtb.write_acv                            0                       # DTB write access violations
system.cpu.dtb.write_accesses                       0                       # DTB write accesses
system.cpu.dtb.data_hits                            2                       # DTB hits
system.cpu.dtb.data_misses                          0                       # DTB misses
system.cpu.dtb.data_acv                             0                       # DTB access violations
system.cpu.dtb.data_accesses                        2                       # DTB accesses
system.cpu.itb.fetch_hits                           3                       # ITB hits
system.cpu.itb.fetch_misses                         0                       # ITB misses
system.cpu.itb.fetch_acv                            0                       # ITB acv
system.cpu.itb.fetch_accesses                       3                       # ITB accesses
system.cpu.itb.read_hits                            0                       # DTB read hits
system.cpu.itb.read_misses                          0                       # DTB read misses
system.cpu.itb.read_acv                             0                       # DTB read access violations
system.cpu.itb.read_accesses                        0                       # DTB read accesses
system.cpu.itb.write_hits                           0                       # DTB write hits
system.cpu.itb.write_misses                         0                       # DTB write misses
system.cpu.itb.write_acv                            0                       # DTB write access violations
system.cpu.itb.write_accesses                       0                       # DTB write accesses
system.cpu.itb.data_hits                            0                       # DTB hits
system.cpu.itb.data_misses                          0                       # DTB misses
system.cpu.itb.data_acv                             0                       # DTB access violations
system.cpu.itb.data_accesses                        0                       # DTB accesses
system.cpu.workload.num_syscalls                    5                       # Number of system calls
system.cpu.pwrStateResidencyTicks::ON    3788146967427                       # Cumulative time (in ticks) in various power states
system.cpu.numCycles                              492                       # number of cpu cycles simulated
system.cpu.numWorkItemsStarted                      0                       # number of work items this cpu started
system.cpu.numWorkItemsCompleted                    0                       # number of work items this cpu completed
system.cpu.fetch.icacheStallCycles                 18                       # Number of cycles fetch is stalled on an Icache miss
system.cpu.fetch.Insts                             10                       # Number of instructions fetch has processed
system.cpu.fetch.Branches                           1                       # Number of branches that fetch encountered
system.cpu.fetch.Cycles                             2                       # Number of cycles fetch has run and was not squashing or blocked
system.cpu.fetch.SquashCycles                       3                       # Number of cycles fetch has spent squashing
system.cpu.fetch.PendingDrainCycles                 3                       # Number of cycles fetch has spent waiting on pipes to drain
system.cpu.fetch.CacheLines                         3                       # Number of cache lines fetched
system.cpu.fetch.IcacheSquashes                     2                       # Number of outstanding Icache misses that were squashed
system.cpu.fetch.rateDist::samples                 24                       # Number of instructions fetched each cycle (Total)
system.cpu.fetch.rateDist::mean              0.416667                       # Number of instructions fetched each cycle (Total)
system.cpu.fetch.rateDist::stdev             1.665942                       # Number of instructions fetched each cycle (Total)
system.cpu.fetch.rateDist::underflows               0      0.00%      0.00% # Number of instructions fetched each cycle (Total)
system.cpu.fetch.rateDist::0                       22     91.67%     91.67% # Number of instructions fetched each cycle (Total)
[...]
system.switch_cpus_1.iq.int_inst_queue_wakeup_accesses    196849806                       # Number of integer instruction queue wakeup accesses
system.switch_cpus_1.iq.fp_inst_queue_reads    132737531                       # Number of floating instruction queue reads
system.switch_cpus_1.iq.fp_inst_queue_writes     84936273                       # Number of floating instruction queue writes
system.switch_cpus_1.iq.fp_inst_queue_wakeup_accesses     59368482                       # Number of floating instruction queue wakeup accesses
system.switch_cpus_1.iq.int_alu_accesses    212860223                       # Number of integer alu accesses
system.switch_cpus_1.iq.fp_alu_accesses      67891645                       # Number of floating point alu accesses
system.switch_cpus_1.iew.lsq.thread0.forwLoads      2277364                       # Number of loads that had data forwarded from stores
system.switch_cpus_1.iew.lsq.thread0.invAddrLoads            0                       # Number of loads ignored due to an invalid address
system.switch_cpus_1.iew.lsq.thread0.squashedLoads     21583262                       # Number of loads squashed
system.switch_cpus_1.iew.lsq.thread0.ignoredResponses        14783                       # Number of memory responses ignored because the instruction is squashed
system.switch_cpus_1.iew.lsq.thread0.memOrderViolation         8756                       # Number of memory ordering violations
system.switch_cpus_1.iew.lsq.thread0.squashedStores      7153658                       # Number of stores squashed
system.switch_cpus_1.iew.lsq.thread0.invAddrSwpfs            0                       # Number of software prefetches ignored due to an invalid address
system.switch_cpus_1.iew.lsq.thread0.blockedLoads            0                       # Number of blocked loads due to partial load-store forwarding
system.switch_cpus_1.iew.lsq.thread0.rescheduledLoads         5995                       # Number of loads that were rescheduled
system.switch_cpus_1.iew.lsq.thread0.cacheBlocked     12700956                       # Number of times an access to memory failed due to the cache being blocked
system.switch_cpus_1.iew.iewIdleCycles              0                       # Number of cycles IEW is idle
system.switch_cpus_1.iew.iewSquashCycles      1487821                       # Number of cycles IEW is squashing
system.switch_cpus_1.iew.iewBlockCycles     193183264                       # Number of cycles IEW is blocking
system.switch_cpus_1.iew.iewUnblockCycles     86637214                       # Number of cycles IEW is unblocking
system.switch_cpus_1.iew.iewDispatchedInsts    292599657                       # Number of instructions dispatched to IQ
system.switch_cpus_1.iew.iewDispSquashedInsts       153970                       # Number of squashed instructions skipped by dispatch
system.switch_cpus_1.iew.iewDispLoadInsts     61254981                       # Number of dispatched load instructions
system.switch_cpus_1.iew.iewDispStoreInsts     19144697                       # Number of dispatched store instructions
system.switch_cpus_1.iew.iewDispNonSpecInsts          210                       # Number of dispatched non-speculative instructions
system.switch_cpus_1.iew.iewIQFullEvents      1021772                       # Number of times the IQ has become full, causing a stall
system.switch_cpus_1.iew.iewLSQFullEvents     85064341                       # Number of times the LSQ has become full, causing a stall
system.switch_cpus_1.iew.memOrderViolationEvents         8756                       # Number of memory order violations
system.switch_cpus_1.iew.predictedTakenIncorrect       824636                       # Number of branches that were predicted taken incorrectly
system.switch_cpus_1.iew.predictedNotTakenIncorrect       565779                       # Number of branches that were predicted not taken incorrectly
system.switch_cpus_1.iew.branchMispredicts      1390415                       # Number of branch mispredicts detected at execute
system.switch_cpus_1.iew.iewExecutedInsts    272215132                       # Number of executed instructions
system.switch_cpus_1.iew.iewExecLoadInsts     68221929                       # Number of load instructions executed
system.switch_cpus_1.iew.iewExecSquashedInsts      1762008                       # Number of squashed instructions skipped in execute
system.switch_cpus_1.iew.exec_swp                   0                       # number of swp insts executed
system.switch_cpus_1.iew.exec_nop             1879326                       # number of nop insts executed
system.switch_cpus_1.iew.exec_refs           83930868                       # number of memory reference insts executed
system.switch_cpus_1.iew.exec_branches       34728589                       # Number of branches executed
system.switch_cpus_1.iew.exec_stores         15708939                       # Number of stores executed
system.switch_cpus_1.iew.exec_rate           0.346507                       # Inst execution rate
system.switch_cpus_1.iew.wb_sent            258197458                       # cumulative count of insts sent to commit
system.switch_cpus_1.iew.wb_count           256218288                       # cumulative count of insts written-back
system.switch_cpus_1.iew.wb_producers       153927942                       # num instructions producing a value
system.switch_cpus_1.iew.wb_consumers       189831364                       # num instructions consuming a value
system.switch_cpus_1.iew.wb_rate             0.326144                       # insts written-back per cycle
system.switch_cpus_1.iew.wb_fanout           0.810867                       # average fanout of values written-back
system.switch_cpus_1.commit.commitSquashedInsts     87291013                       # The number of squashed insts skipped by commit
system.switch_cpus_1.commit.commitNonSpecStalls          204                       # The number of times commit has been forced to stall to communicate backwards
system.switch_cpus_1.commit.branchMispredicts      1114811                       # The number of times a branch was mispredicted
system.switch_cpus_1.commit.committed_per_cycle::samples    773119922                       # Number of insts commited each cycle
system.switch_cpus_1.commit.committed_per_cycle::mean     0.260268                       # Number of insts commited each cycle
system.switch_cpus_1.commit.committed_per_cycle::stdev     1.323628                       # Number of insts commited each cycle
system.switch_cpus_1.commit.committed_per_cycle::underflows            0      0.00%      0.00% # Number of insts commited each cycle
system.switch_cpus_1.commit.committed_per_cycle::0    734198179     94.97%     94.97% # Number of insts commited each cycle
system.switch_cpus_1.commit.committed_per_cycle::1      9133055      1.18%     96.15% # Number of insts commited each cycle
system.switch_cpus_1.commit.committed_per_cycle::2      3988137      0.52%     96.66% # Number of insts commited each cycle
system.switch_cpus_1.commit.committed_per_cycle::3      1846499      0.24%     96.90% # Number of insts commited each cycle
system.switch_cpus_1.commit.committed_per_cycle::4      1286358      0.17%     97.07% # Number of insts commited each cycle
system.switch_cpus_1.commit.committed_per_cycle::5      1858472      0.24%     97.31% # Number of insts commited each cycle
system.switch_cpus_1.commit.committed_per_cycle::6       731645      0.09%     97.40% # Number of insts commited each cycle
system.switch_cpus_1.commit.committed_per_cycle::7       878753      0.11%     97.52% # Number of insts commited each cycle
system.switch_cpus_1.commit.committed_per_cycle::8     19198824      2.48%    100.00% # Number of insts commited each cycle
system.switch_cpus_1.commit.committed_per_cycle::overflows            0      0.00%    100.00% # Number of insts commited each cycle
system.switch_cpus_1.commit.committed_per_cycle::min_value            0                       # Number of insts commited each cycle
system.switch_cpus_1.commit.committed_per_cycle::max_value            8                       # Number of insts commited each cycle
system.switch_cpus_1.commit.committed_per_cycle::total    773119922                       # Number of insts commited each cycle
system.switch_cpus_1.commit.committedInsts    201218351                       # Number of instructions committed
system.switch_cpus_1.commit.committedOps    201218351                       # Number of ops (including micro ops) committed
system.switch_cpus_1.commit.swp_count               0                       # Number of s/w prefetches committed
system.switch_cpus_1.commit.refs             51662751                       # Number of memory references committed
system.switch_cpus_1.commit.loads            39671715                       # Number of loads committed
system.switch_cpus_1.commit.membars               102                       # Number of memory barriers committed
system.switch_cpus_1.commit.branches         28384894                       # Number of branches committed
system.switch_cpus_1.commit.fp_insts         51627815                       # Number of committed floating point instructions.
system.switch_cpus_1.commit.int_insts       168624395                       # Number of committed integer instructions.
system.switch_cpus_1.commit.function_calls       460018                       # Number of function calls committed.
system.switch_cpus_1.commit.op_class_0::No_OpClass      1218344      0.61%      0.61% # Class of committed instruction
system.switch_cpus_1.commit.op_class_0::IntAlu    117264314     58.28%     58.88% # Class of committed instruction
system.switch_cpus_1.commit.op_class_0::IntMult       166526      0.08%     58.97% # Class of committed instruction
system.switch_cpus_1.commit.op_class_0::IntDiv            0      0.00%     58.97% # Class of committed instruction
system.switch_cpus_1.commit.op_class_0::FloatAdd     18908760      9.40%     68.36% # Class of committed instruction
system.switch_cpus_1.commit.op_class_0::FloatCmp     10580725      5.26%     73.62% # Class of committed instruction
system.switch_cpus_1.commit.op_class_0::FloatCvt         1376      0.00%     73.62% # Class of committed instruction
system.switch_cpus_1.commit.op_class_0::FloatMult       880508      0.44%     74.06% # Class of committed instruction
system.switch_cpus_1.commit.op_class_0::FloatMultAcc            0      0.00%     74.06% # Class of committed instruction
system.switch_cpus_1.commit.op_class_0::FloatDiv       534945      0.27%     74.32% # Class of committed instruction
system.switch_cpus_1.commit.op_class_0::FloatMisc            0      0.00%     74.32% # Class of committed instruction
system.switch_cpus_1.commit.op_class_0::FloatSqrt            0      0.00%     74.32% # Class of committed instruction
system.switch_cpus_1.commit.op_class_0::SimdAdd            0      0.00%     74.32% # Class of committed instruction
system.switch_cpus_1.commit.op_class_0::SimdAddAcc            0      0.00%     74.32% # Class of committed instruction
system.switch_cpus_1.commit.op_class_0::SimdAlu            0      0.00%     74.32% # Class of committed instruction
system.switch_cpus_1.commit.op_class_0::SimdCmp            0      0.00%     74.32% # Class of committed instruction
system.switch_cpus_1.commit.op_class_0::SimdCvt            0      0.00%     74.32% # Class of committed instruction
system.switch_cpus_1.commit.op_class_0::SimdMisc            0      0.00%     74.32% # Class of committed instruction
system.switch_cpus_1.commit.op_class_0::SimdMult            0      0.00%     74.32% # Class of committed instruction
system.switch_cpus_1.commit.op_class_0::SimdMultAcc            0      0.00%     74.32% # Class of committed instruction
system.switch_cpus_1.commit.op_class_0::SimdShift            0      0.00%     74.32% # Class of committed instruction
system.switch_cpus_1.commit.op_class_0::SimdShiftAcc            0      0.00%     74.32% # Class of committed instruction
system.switch_cpus_1.commit.op_class_0::SimdSqrt            0      0.00%     74.32% # Class of committed instruction
system.switch_cpus_1.commit.op_class_0::SimdFloatAdd            0      0.00%     74.32% # Class of committed instruction
system.switch_cpus_1.commit.op_class_0::SimdFloatAlu            0      0.00%     74.32% # Class of committed instruction
system.switch_cpus_1.commit.op_class_0::SimdFloatCmp            0      0.00%     74.32% # Class of committed instruction
system.switch_cpus_1.commit.op_class_0::SimdFloatCvt            0      0.00%     74.32% # Class of committed instruction
system.switch_cpus_1.commit.op_class_0::SimdFloatDiv            0      0.00%     74.32% # Class of committed instruction
system.switch_cpus_1.commit.op_class_0::SimdFloatMisc            0      0.00%     74.32% # Class of committed instruction
system.switch_cpus_1.commit.op_class_0::SimdFloatMult            0      0.00%     74.32% # Class of committed instruction
system.switch_cpus_1.commit.op_class_0::SimdFloatMultAcc            0      0.00%     74.32% # Class of committed instruction
system.switch_cpus_1.commit.op_class_0::SimdFloatSqrt            0      0.00%     74.32% # Class of committed instruction
system.switch_cpus_1.commit.op_class_0::MemRead     20146503     10.01%     84.34% # Class of committed instruction
system.switch_cpus_1.commit.op_class_0::MemWrite     10794849      5.36%     89.70% # Class of committed instruction
system.switch_cpus_1.commit.op_class_0::FloatMemRead     19525314      9.70%     99.41% # Class of committed instruction
system.switch_cpus_1.commit.op_class_0::FloatMemWrite      1196187      0.59%    100.00% # Class of committed instruction
system.switch_cpus_1.commit.op_class_0::IprAccess            0      0.00%    100.00% # Class of committed instruction
system.switch_cpus_1.commit.op_class_0::InstPrefetch            0      0.00%    100.00% # Class of committed instruction
system.switch_cpus_1.commit.op_class_0::total    201218351                       # Class of committed instruction
system.switch_cpus_1.commit.bw_lim_events     19198824                       # number cycles where commit BW limit reached
system.switch_cpus_1.rob.rob_reads         1037665403                       # The number of ROB reads
system.switch_cpus_1.rob.rob_writes         589093439                       # The number of ROB writes
system.switch_cpus_1.timesIdled                  2205                       # Number of times that the entire CPU went into an idle state and unscheduled itself
system.switch_cpus_1.idleCycles                425192                       # Total number of cycles that the CPU has spent unscheduled due to idling
system.switch_cpus_1.committedInsts         200000007                       # Number of Instructions Simulated
system.switch_cpus_1.committedOps           200000007                       # Number of Ops (including micro ops) Simulated
system.switch_cpus_1.cpi                     3.927992                       # CPI: Cycles Per Instruction
system.switch_cpus_1.cpi_total               3.927992                       # CPI: Total CPI of All Threads
system.switch_cpus_1.ipc                     0.254583                       # IPC: Instructions Per Cycle
system.switch_cpus_1.ipc_total               0.254583                       # IPC: Total IPC of All Threads
system.switch_cpus_1.int_regfile_reads      354714644                       # number of integer regfile reads
system.switch_cpus_1.int_regfile_writes     160667272                       # number of integer regfile writes
system.switch_cpus_1.fp_regfile_reads        59540714                       # number of floating regfile reads
system.switch_cpus_1.fp_regfile_writes       46552488                       # number of floating regfile writes
system.switch_cpus_1.misc_regfile_reads           243                       # number of misc regfile reads
system.switch_cpus_1.misc_regfile_writes          204                       # number of misc regfile writes
system.tol3bus.snoop_filter.tot_requests     51976793                       # Total number of requests made to the snoop filter.
system.tol3bus.snoop_filter.hit_single_requests     25986183                       # Number of requests hitting in the snoop filter with a single holder of the requested data.
system.tol3bus.snoop_filter.hit_multi_requests            0                       # Number of requests hitting in the snoop filter with multiple (>1) holders of the requested data.
system.tol3bus.snoop_filter.tot_snoops         455928                       # Total number of snoops made to the snoop filter.
system.tol3bus.snoop_filter.hit_single_snoops       455928                       # Number of snoops hitting in the snoop filter with a single holder of the requested data.
system.tol3bus.snoop_filter.hit_multi_snoops            0                       # Number of snoops hitting in the snoop filter with multiple (>1) holders of the requested data.
system.tol3bus.pwrStateResidencyTicks::UNDEFINED 73818119548773                       # Cumulative time (in ticks) in various power states
system.tol3bus.trans_dist::ReadResp          19570632                       # Transaction distribution
system.tol3bus.trans_dist::WritebackDirty     17935303                       # Transaction distribution
system.tol3bus.trans_dist::CleanEvict        23773392                       # Transaction distribution
system.tol3bus.trans_dist::UpgradeReq              27                       # Transaction distribution
system.tol3bus.trans_dist::UpgradeResp             27                       # Transaction distribution
system.tol3bus.trans_dist::ReadExReq          6419978                       # Transaction distribution
system.tol3bus.trans_dist::ReadExResp         6419978                       # Transaction distribution
system.tol3bus.trans_dist::ReadSharedReq     19570632                       # Transaction distribution
system.tol3bus.pkt_count_system.cpu.l2.mem_side::system.l3.cpu_side     77967430                       # Packet count per connected master and slave (bytes)
system.tol3bus.pkt_size_system.cpu.l2.mem_side::system.l3.cpu_side   2475929856                       # Cumulative packet size per connected master and slave (bytes)
system.tol3bus.snoops                        15722539                       # Total snoops (count)
system.tol3bus.snoopTraffic                 335328576                       # Total snoop traffic (bytes)
system.tol3bus.snoop_fanout::samples         41713176                       # Request fanout histogram
system.tol3bus.snoop_fanout::mean            0.010930                       # Request fanout histogram
system.tol3bus.snoop_fanout::stdev           0.103974                       # Request fanout histogram
system.tol3bus.snoop_fanout::underflows             0      0.00%      0.00% # Request fanout histogram
system.tol3bus.snoop_fanout::0               41257248     98.91%     98.91% # Request fanout histogram
system.tol3bus.snoop_fanout::1                 455928      1.09%    100.00% # Request fanout histogram
system.tol3bus.snoop_fanout::overflows              0      0.00%    100.00% # Request fanout histogram
system.tol3bus.snoop_fanout::min_value              0                       # Request fanout histogram
system.tol3bus.snoop_fanout::max_value              1                       # Request fanout histogram
system.tol3bus.snoop_fanout::total           41713176                       # Request fanout histogram
system.tol3bus.reqLayer0.occupancy        21535971471                       # Layer occupancy (ticks)
system.tol3bus.reqLayer0.utilization              0.6                       # Layer utilization (%)
system.tol3bus.respLayer0.occupancy       17309755251                       # Layer occupancy (ticks)
system.tol3bus.respLayer0.utilization             0.5                       # Layer utilization (%)

---------- End Simulation Statistics   ----------
