
---------- Begin Simulation Statistics ----------
sim_seconds                                  1.186062                       # Number of seconds simulated
sim_ticks                                1186062272012                       # Number of ticks simulated
final_tick                               191237372187012                       # Number of ticks from beginning of simulation (restored from checkpoints and never reset)
sim_freq                                 1000000000000                       # Frequency of simulated ticks
host_inst_rate                                 408360                       # Simulator instruction rate (inst/s)
host_op_rate                                   408360                       # Simulator op (including micro ops) rate (op/s)
host_tick_rate                              403616808                       # Simulator tick rate (ticks/s)
host_mem_usage                                2538024                       # Number of bytes of host memory used
host_seconds                                  2938.59                       # Real time elapsed on the host
sim_insts                                  1200000007                       # Number of instructions simulated
sim_ops                                    1200000007                       # Number of ops (including micro ops) simulated
system.voltage_domain.voltage                       1                       # Voltage in Volts
system.clk_domain.clock                          1000                       # Clock period in ticks
system.mem_ctrls0.pwrStateResidencyTicks::UNDEFINED 191237372187012                       # Cumulative time (in ticks) in various power states
system.mem_ctrls0.bytes_read::cpu.inst            192                       # Number of bytes read from this memory
system.mem_ctrls0.bytes_read::cpu.data            192                       # Number of bytes read from this memory
system.mem_ctrls0.bytes_read::switch_cpus.inst        12992                       # Number of bytes read from this memory
system.mem_ctrls0.bytes_read::switch_cpus.data     19482688                       # Number of bytes read from this memory
system.mem_ctrls0.bytes_read::switch_cpus_1.inst          320                       # Number of bytes read from this memory
system.mem_ctrls0.bytes_read::switch_cpus_1.data      4422272                       # Number of bytes read from this memory
system.mem_ctrls0.bytes_read::total          23918656                       # Number of bytes read from this memory
system.mem_ctrls0.bytes_inst_read::cpu.inst          192                       # Number of instructions bytes read from this memory
system.mem_ctrls0.bytes_inst_read::switch_cpus.inst        12992                       # Number of instructions bytes read from this memory
system.mem_ctrls0.bytes_inst_read::switch_cpus_1.inst          320                       # Number of instructions bytes read from this memory
system.mem_ctrls0.bytes_inst_read::total        13504                       # Number of instructions bytes read from this memory
system.mem_ctrls0.bytes_written::writebacks     15273792                       # Number of bytes written to this memory
system.mem_ctrls0.bytes_written::total       15273792                       # Number of bytes written to this memory
system.mem_ctrls0.num_reads::cpu.inst               3                       # Number of read requests responded to by this memory
system.mem_ctrls0.num_reads::cpu.data               3                       # Number of read requests responded to by this memory
system.mem_ctrls0.num_reads::switch_cpus.inst          203                       # Number of read requests responded to by this memory
system.mem_ctrls0.num_reads::switch_cpus.data       304417                       # Number of read requests responded to by this memory
system.mem_ctrls0.num_reads::switch_cpus_1.inst            5                       # Number of read requests responded to by this memory
system.mem_ctrls0.num_reads::switch_cpus_1.data        69098                       # Number of read requests responded to by this memory
system.mem_ctrls0.num_reads::total             373729                       # Number of read requests responded to by this memory
system.mem_ctrls0.num_writes::writebacks       238653                       # Number of write requests responded to by this memory
system.mem_ctrls0.num_writes::total            238653                       # Number of write requests responded to by this memory
system.mem_ctrls0.bw_read::cpu.inst               162                       # Total read bandwidth from this memory (bytes/s)
system.mem_ctrls0.bw_read::cpu.data               162                       # Total read bandwidth from this memory (bytes/s)
system.mem_ctrls0.bw_read::switch_cpus.inst        10954                       # Total read bandwidth from this memory (bytes/s)
system.mem_ctrls0.bw_read::switch_cpus.data     16426362                       # Total read bandwidth from this memory (bytes/s)
system.mem_ctrls0.bw_read::switch_cpus_1.inst          270                       # Total read bandwidth from this memory (bytes/s)
system.mem_ctrls0.bw_read::switch_cpus_1.data      3728533                       # Total read bandwidth from this memory (bytes/s)
system.mem_ctrls0.bw_read::total             20166442                       # Total read bandwidth from this memory (bytes/s)
system.mem_ctrls0.bw_inst_read::cpu.inst          162                       # Instruction read bandwidth from this memory (bytes/s)
system.mem_ctrls0.bw_inst_read::switch_cpus.inst        10954                       # Instruction read bandwidth from this memory (bytes/s)
system.mem_ctrls0.bw_inst_read::switch_cpus_1.inst          270                       # Instruction read bandwidth from this memory (bytes/s)
system.mem_ctrls0.bw_inst_read::total           11386                       # Instruction read bandwidth from this memory (bytes/s)
system.mem_ctrls0.bw_write::writebacks       12877732                       # Write bandwidth from this memory (bytes/s)
system.mem_ctrls0.bw_write::total            12877732                       # Write bandwidth from this memory (bytes/s)
system.mem_ctrls0.bw_total::writebacks       12877732                       # Total bandwidth to/from this memory (bytes/s)
system.mem_ctrls0.bw_total::cpu.inst              162                       # Total bandwidth to/from this memory (bytes/s)
system.mem_ctrls0.bw_total::cpu.data              162                       # Total bandwidth to/from this memory (bytes/s)
system.mem_ctrls0.bw_total::switch_cpus.inst        10954                       # Total bandwidth to/from this memory (bytes/s)
system.mem_ctrls0.bw_total::switch_cpus.data     16426362                       # Total bandwidth to/from this memory (bytes/s)
system.mem_ctrls0.bw_total::switch_cpus_1.inst          270                       # Total bandwidth to/from this memory (bytes/s)
system.mem_ctrls0.bw_total::switch_cpus_1.data      3728533                       # Total bandwidth to/from this memory (bytes/s)
system.mem_ctrls0.bw_total::total            33044174                       # Total bandwidth to/from this memory (bytes/s)
system.mem_ctrls0.readReqs                     373729                       # Number of read requests accepted
system.mem_ctrls0.writeReqs                    238653                       # Number of write requests accepted
system.mem_ctrls0.readBursts                   373729                       # Number of DRAM read bursts, including those serviced by the write queue
system.mem_ctrls0.writeBursts                  238653                       # Number of DRAM write bursts, including those merged in the write queue
system.mem_ctrls0.bytesReadDRAM              23864000                       # Total number of bytes read from DRAM
system.mem_ctrls0.bytesReadWrQ                  54656                       # Total number of bytes read from write queue
system.mem_ctrls0.bytesWritten               15271936                       # Total number of bytes written to DRAM
system.mem_ctrls0.bytesReadSys               23918656                       # Total read bytes from the system interface side
system.mem_ctrls0.bytesWrittenSys            15273792                       # Total written bytes from the system interface side
system.mem_ctrls0.servicedByWrQ                   854                       # Number of DRAM read bursts serviced by the write queue
system.mem_ctrls0.mergedWrBursts                    0                       # Number of DRAM write bursts merged with an existing one
system.mem_ctrls0.neitherReadNorWriteReqs            0                       # Number of requests that are neither read nor write
system.mem_ctrls0.perBankRdBursts::0            24676                       # Per bank write bursts
system.mem_ctrls0.perBankRdBursts::1            23872                       # Per bank write bursts
system.mem_ctrls0.perBankRdBursts::2            24655                       # Per bank write bursts
system.mem_ctrls0.perBankRdBursts::3            23969                       # Per bank write bursts
system.mem_ctrls0.perBankRdBursts::4            22164                       # Per bank write bursts
system.mem_ctrls0.perBankRdBursts::5            22574                       # Per bank write bursts
system.mem_ctrls0.perBankRdBursts::6            22951                       # Per bank write bursts
system.mem_ctrls0.perBankRdBursts::7            23741                       # Per bank write bursts
system.mem_ctrls0.perBankRdBursts::8            23980                       # Per bank write bursts
system.mem_ctrls0.perBankRdBursts::9            22627                       # Per bank write bursts
system.mem_ctrls0.perBankRdBursts::10           23255                       # Per bank write bursts
system.mem_ctrls0.perBankRdBursts::11           22720                       # Per bank write bursts
system.mem_ctrls0.perBankRdBursts::12           21598                       # Per bank write bursts
system.mem_ctrls0.perBankRdBursts::13           22540                       # Per bank write bursts
system.mem_ctrls0.perBankRdBursts::14           23100                       # Per bank write bursts
system.mem_ctrls0.perBankRdBursts::15           24453                       # Per bank write bursts
system.mem_ctrls0.perBankWrBursts::0            15933                       # Per bank write bursts
system.mem_ctrls0.perBankWrBursts::1            15384                       # Per bank write bursts
system.mem_ctrls0.perBankWrBursts::2            15734                       # Per bank write bursts
system.mem_ctrls0.perBankWrBursts::3            15158                       # Per bank write bursts
system.mem_ctrls0.perBankWrBursts::4            13724                       # Per bank write bursts
system.mem_ctrls0.perBankWrBursts::5            14444                       # Per bank write bursts
system.mem_ctrls0.perBankWrBursts::6            14721                       # Per bank write bursts
system.mem_ctrls0.perBankWrBursts::7            15402                       # Per bank write bursts
system.mem_ctrls0.perBankWrBursts::8            15496                       # Per bank write bursts
system.mem_ctrls0.perBankWrBursts::9            14553                       # Per bank write bursts
system.mem_ctrls0.perBankWrBursts::10           14754                       # Per bank write bursts
system.mem_ctrls0.perBankWrBursts::11           14513                       # Per bank write bursts
system.mem_ctrls0.perBankWrBursts::12           13873                       # Per bank write bursts
system.mem_ctrls0.perBankWrBursts::13           14340                       # Per bank write bursts
system.mem_ctrls0.perBankWrBursts::14           14764                       # Per bank write bursts
system.mem_ctrls0.perBankWrBursts::15           15831                       # Per bank write bursts
system.mem_ctrls0.numRdRetry                        0                       # Number of times read queue was full causing retry
system.mem_ctrls0.numWrRetry                        0                       # Number of times write queue was full causing retry
system.mem_ctrls0.totGap                 1185812319348                       # Total gap between requests
system.mem_ctrls0.readPktSize::0                    0                       # Read request sizes (log2)
system.mem_ctrls0.readPktSize::1                    0                       # Read request sizes (log2)
system.mem_ctrls0.readPktSize::2                    0                       # Read request sizes (log2)
system.mem_ctrls0.readPktSize::3                    0                       # Read request sizes (log2)
system.mem_ctrls0.readPktSize::4                    0                       # Read request sizes (log2)
system.mem_ctrls0.readPktSize::5                    0                       # Read request sizes (log2)
system.mem_ctrls0.readPktSize::6               373729                       # Read request sizes (log2)
system.mem_ctrls0.writePktSize::0                   0                       # Write request sizes (log2)
system.mem_ctrls0.writePktSize::1                   0                       # Write request sizes (log2)
system.mem_ctrls0.writePktSize::2                   0                       # Write request sizes (log2)
system.mem_ctrls0.writePktSize::3                   0                       # Write request sizes (log2)
system.mem_ctrls0.writePktSize::4                   0                       # Write request sizes (log2)
system.mem_ctrls0.writePktSize::5                   0                       # Write request sizes (log2)
system.mem_ctrls0.writePktSize::6              238653                       # Write request sizes (log2)
system.mem_ctrls0.rdQLenPdf::0                 366466                       # What read queue length does an incoming req see
system.mem_ctrls0.rdQLenPdf::1                   6208                       # What read queue length does an incoming req see
system.mem_ctrls0.rdQLenPdf::2                    173                       # What read queue length does an incoming req see
system.mem_ctrls0.rdQLenPdf::3                     27                       # What read queue length does an incoming req see
system.mem_ctrls0.rdQLenPdf::4                      1                       # What read queue length does an incoming req see
system.mem_ctrls0.rdQLenPdf::5                      0                       # What read queue length does an incoming req see
system.mem_ctrls0.rdQLenPdf::6                      0                       # What read queue length does an incoming req see
system.mem_ctrls0.rdQLenPdf::7                      0                       # What read queue length does an incoming req see
system.mem_ctrls0.rdQLenPdf::8                      0                       # What read queue length does an incoming req see
system.mem_ctrls0.rdQLenPdf::9                      0                       # What read queue length does an incoming req see
system.mem_ctrls0.rdQLenPdf::10                     0                       # What read queue length does an incoming req see
system.mem_ctrls0.rdQLenPdf::11                     0                       # What read queue length does an incoming req see
system.mem_ctrls0.rdQLenPdf::12                     0                       # What read queue length does an incoming req see
system.mem_ctrls0.rdQLenPdf::13                     0                       # What read queue length does an incoming req see
system.mem_ctrls0.rdQLenPdf::14                     0                       # What read queue length does an incoming req see
system.mem_ctrls0.rdQLenPdf::15                     0                       # What read queue length does an incoming req see
system.mem_ctrls0.rdQLenPdf::16                     0                       # What read queue length does an incoming req see
system.mem_ctrls0.rdQLenPdf::17                     0                       # What read queue length does an incoming req see
system.mem_ctrls0.rdQLenPdf::18                     0                       # What read queue length does an incoming req see
system.mem_ctrls0.rdQLenPdf::19                     0                       # What read queue length does an incoming req see
system.mem_ctrls0.rdQLenPdf::20                     0                       # What read queue length does an incoming req see
system.mem_ctrls0.rdQLenPdf::21                     0                       # What read queue length does an incoming req see
system.mem_ctrls0.rdQLenPdf::22                     0                       # What read queue length does an incoming req see
system.mem_ctrls0.rdQLenPdf::23                     0                       # What read queue length does an incoming req see
system.mem_ctrls0.rdQLenPdf::24                     0                       # What read queue length does an incoming req see
system.mem_ctrls0.rdQLenPdf::25                     0                       # What read queue length does an incoming req see
system.mem_ctrls0.rdQLenPdf::26                     0                       # What read queue length does an incoming req see
system.mem_ctrls0.rdQLenPdf::27                     0                       # What read queue length does an incoming req see
system.mem_ctrls0.rdQLenPdf::28                     0                       # What read queue length does an incoming req see
system.mem_ctrls0.rdQLenPdf::29                     0                       # What read queue length does an incoming req see
system.mem_ctrls0.rdQLenPdf::30                     0                       # What read queue length does an incoming req see
system.mem_ctrls0.rdQLenPdf::31                     0                       # What read queue length does an incoming req see
system.mem_ctrls0.wrQLenPdf::0                      2                       # What write queue length does an incoming req see
system.mem_ctrls0.wrQLenPdf::1                      2                       # What write queue length does an incoming req see
system.mem_ctrls0.wrQLenPdf::2                      2                       # What write queue length does an incoming req see
system.mem_ctrls0.wrQLenPdf::3                      2                       # What write queue length does an incoming req see
system.mem_ctrls0.wrQLenPdf::4                      2                       # What write queue length does an incoming req see
system.mem_ctrls0.wrQLenPdf::5                      2                       # What write queue length does an incoming req see
system.mem_ctrls0.wrQLenPdf::6                      2                       # What write queue length does an incoming req see
system.mem_ctrls0.wrQLenPdf::7                      2                       # What write queue length does an incoming req see
system.mem_ctrls0.wrQLenPdf::8                      2                       # What write queue length does an incoming req see
system.mem_ctrls0.wrQLenPdf::9                      2                       # What write queue length does an incoming req see
system.mem_ctrls0.wrQLenPdf::10                     2                       # What write queue length does an incoming req see
system.mem_ctrls0.wrQLenPdf::11                     2                       # What write queue length does an incoming req see
system.mem_ctrls0.wrQLenPdf::12                     2                       # What write queue length does an incoming req see
system.mem_ctrls0.wrQLenPdf::13                     2                       # What write queue length does an incoming req see
system.mem_ctrls0.wrQLenPdf::14                     2                       # What write queue length does an incoming req see
system.mem_ctrls0.wrQLenPdf::15                 10160                       # What write queue length does an incoming req see
system.mem_ctrls0.wrQLenPdf::16                 10425                       # What write queue length does an incoming req see
system.mem_ctrls0.wrQLenPdf::17                 13169                       # What write queue length does an incoming req see
system.mem_ctrls0.wrQLenPdf::18                 13588                       # What write queue length does an incoming req see
system.mem_ctrls0.wrQLenPdf::19                 13651                       # What write queue length does an incoming req see
system.mem_ctrls0.wrQLenPdf::20                 13662                       # What write queue length does an incoming req see
system.mem_ctrls0.wrQLenPdf::21                 13658                       # What write queue length does an incoming req see
system.mem_ctrls0.wrQLenPdf::22                 13687                       # What write queue length does an incoming req see
system.mem_ctrls0.wrQLenPdf::23                 13681                       # What write queue length does an incoming req see
system.mem_ctrls0.wrQLenPdf::24                 13700                       # What write queue length does an incoming req see
system.mem_ctrls0.wrQLenPdf::25                 13671                       # What write queue length does an incoming req see
system.mem_ctrls0.wrQLenPdf::26                 13667                       # What write queue length does an incoming req see
system.mem_ctrls0.wrQLenPdf::27                 13685                       # What write queue length does an incoming req see
system.mem_ctrls0.wrQLenPdf::28                 13686                       # What write queue length does an incoming req see
system.mem_ctrls0.wrQLenPdf::29                 13695                       # What write queue length does an incoming req see
system.mem_ctrls0.wrQLenPdf::30                 13645                       # What write queue length does an incoming req see
system.mem_ctrls0.wrQLenPdf::31                 13567                       # What write queue length does an incoming req see
system.mem_ctrls0.wrQLenPdf::32                 13557                       # What write queue length does an incoming req see
system.mem_ctrls0.wrQLenPdf::33                    56                       # What write queue length does an incoming req see
system.mem_ctrls0.wrQLenPdf::34                     9                       # What write queue length does an incoming req see
system.mem_ctrls0.wrQLenPdf::35                     3                       # What write queue length does an incoming req see
system.mem_ctrls0.wrQLenPdf::36                     1                       # What write queue length does an incoming req see
system.mem_ctrls0.wrQLenPdf::37                     0                       # What write queue length does an incoming req see
system.mem_ctrls0.wrQLenPdf::38                     0                       # What write queue length does an incoming req see
system.mem_ctrls0.wrQLenPdf::39                     0                       # What write queue length does an incoming req see
system.mem_ctrls0.wrQLenPdf::40                     0                       # What write queue length does an incoming req see
system.mem_ctrls0.wrQLenPdf::41                     0                       # What write queue length does an incoming req see
system.mem_ctrls0.wrQLenPdf::42                     0                       # What write queue length does an incoming req see
system.mem_ctrls0.wrQLenPdf::43                     0                       # What write queue length does an incoming req see
system.mem_ctrls0.wrQLenPdf::44                     0                       # What write queue length does an incoming req see
system.mem_ctrls0.wrQLenPdf::45                     0                       # What write queue length does an incoming req see
system.mem_ctrls0.wrQLenPdf::46                     0                       # What write queue length does an incoming req see
system.mem_ctrls0.wrQLenPdf::47                     0                       # What write queue length does an incoming req see
system.mem_ctrls0.wrQLenPdf::48                     0                       # What write queue length does an incoming req see
system.mem_ctrls0.wrQLenPdf::49                     0                       # What write queue length does an incoming req see
system.mem_ctrls0.wrQLenPdf::50                     0                       # What write queue length does an incoming req see
system.mem_ctrls0.wrQLenPdf::51                     0                       # What write queue length does an incoming req see
system.mem_ctrls0.wrQLenPdf::52                     0                       # What write queue length does an incoming req see
system.mem_ctrls0.wrQLenPdf::53                     0                       # What write queue length does an incoming req see
system.mem_ctrls0.wrQLenPdf::54                     0                       # What write queue length does an incoming req see
system.mem_ctrls0.wrQLenPdf::55                     0                       # What write queue length does an incoming req see
system.mem_ctrls0.wrQLenPdf::56                     0                       # What write queue length does an incoming req see
system.mem_ctrls0.wrQLenPdf::57                     0                       # What write queue length does an incoming req see
system.mem_ctrls0.wrQLenPdf::58                     0                       # What write queue length does an incoming req see
system.mem_ctrls0.wrQLenPdf::59                     0                       # What write queue length does an incoming req see
system.mem_ctrls0.wrQLenPdf::60                     0                       # What write queue length does an incoming req see
system.mem_ctrls0.wrQLenPdf::61                     0                       # What write queue length does an incoming req see
system.mem_ctrls0.wrQLenPdf::62                     0                       # What write queue length does an incoming req see
system.mem_ctrls0.wrQLenPdf::63                     0                       # What write queue length does an incoming req see
system.mem_ctrls0.bytesPerActivate::samples       384106                       # Bytes accessed per row activation
system.mem_ctrls0.bytesPerActivate::mean   101.888375                       # Bytes accessed per row activation
system.mem_ctrls0.bytesPerActivate::gmean    82.521827                       # Bytes accessed per row activation
system.mem_ctrls0.bytesPerActivate::stdev   109.289332                       # Bytes accessed per row activation
system.mem_ctrls0.bytesPerActivate::0-127       293848     76.50%     76.50% # Bytes accessed per row activation
system.mem_ctrls0.bytesPerActivate::128-255        63598     16.56%     93.06% # Bytes accessed per row activation
system.mem_ctrls0.bytesPerActivate::256-383        14115      3.67%     96.73% # Bytes accessed per row activation
system.mem_ctrls0.bytesPerActivate::384-511         6391      1.66%     98.40% # Bytes accessed per row activation
system.mem_ctrls0.bytesPerActivate::512-639         2111      0.55%     98.95% # Bytes accessed per row activation
system.mem_ctrls0.bytesPerActivate::640-767          946      0.25%     99.19% # Bytes accessed per row activation
system.mem_ctrls0.bytesPerActivate::768-895          732      0.19%     99.38% # Bytes accessed per row activation
system.mem_ctrls0.bytesPerActivate::896-1023          562      0.15%     99.53% # Bytes accessed per row activation
system.mem_ctrls0.bytesPerActivate::1024-1151         1803      0.47%    100.00% # Bytes accessed per row activation
system.mem_ctrls0.bytesPerActivate::total       384106                       # Bytes accessed per row activation
system.mem_ctrls0.rdPerTurnAround::samples        13555                       # Reads before turning the bus around for writes
system.mem_ctrls0.rdPerTurnAround::mean     27.505422                       # Reads before turning the bus around for writes
system.mem_ctrls0.rdPerTurnAround::stdev   248.799920                       # Reads before turning the bus around for writes
system.mem_ctrls0.rdPerTurnAround::0-1023        13554     99.99%     99.99% # Reads before turning the bus around for writes
system.mem_ctrls0.rdPerTurnAround::28672-29695            1      0.01%    100.00% # Reads before turning the bus around for writes
system.mem_ctrls0.rdPerTurnAround::total        13555                       # Reads before turning the bus around for writes
system.mem_ctrls0.wrPerTurnAround::samples        13555                       # Writes before turning the bus around for reads
system.mem_ctrls0.wrPerTurnAround::mean     17.604131                       # Writes before turning the bus around for reads
system.mem_ctrls0.wrPerTurnAround::gmean    17.577269                       # Writes before turning the bus around for reads
system.mem_ctrls0.wrPerTurnAround::stdev     0.962242                       # Writes before turning the bus around for reads
system.mem_ctrls0.wrPerTurnAround::16            3184     23.49%     23.49% # Writes before turning the bus around for reads
system.mem_ctrls0.wrPerTurnAround::17             179      1.32%     24.81% # Writes before turning the bus around for reads
system.mem_ctrls0.wrPerTurnAround::18            9191     67.81%     92.62% # Writes before turning the bus around for reads
system.mem_ctrls0.wrPerTurnAround::19             871      6.43%     99.04% # Writes before turning the bus around for reads
system.mem_ctrls0.wrPerTurnAround::20             101      0.75%     99.79% # Writes before turning the bus around for reads
system.mem_ctrls0.wrPerTurnAround::21              18      0.13%     99.92% # Writes before turning the bus around for reads
system.mem_ctrls0.wrPerTurnAround::22               8      0.06%     99.98% # Writes before turning the bus around for reads
system.mem_ctrls0.wrPerTurnAround::23               2      0.01%     99.99% # Writes before turning the bus around for reads
system.mem_ctrls0.wrPerTurnAround::30               1      0.01%    100.00% # Writes before turning the bus around for reads
system.mem_ctrls0.wrPerTurnAround::total        13555                       # Writes before turning the bus around for reads
system.mem_ctrls0.totQLat                 17785252367                       # Total ticks spent queuing
system.mem_ctrls0.totMemAccLat            24776658617                       # Total ticks spent from burst creation until serviced by the DRAM
system.mem_ctrls0.totBusLat                1864375000                       # Total ticks spent in databus transfers
system.mem_ctrls0.avgQLat                    47697.63                       # Average queueing delay per DRAM burst
system.mem_ctrls0.avgBusLat                   5000.00                       # Average bus latency per DRAM burst
system.mem_ctrls0.avgMemAccLat               66447.63                       # Average memory access latency per DRAM burst
system.mem_ctrls0.avgRdBW                       20.12                       # Average DRAM read bandwidth in MiByte/s
system.mem_ctrls0.avgWrBW                       12.88                       # Average achieved write bandwidth in MiByte/s
system.mem_ctrls0.avgRdBWSys                    20.17                       # Average system read bandwidth in MiByte/s
system.mem_ctrls0.avgWrBWSys                    12.88                       # Average system write bandwidth in MiByte/s
system.mem_ctrls0.peakBW                     12800.00                       # Theoretical peak bandwidth in MiByte/s
system.mem_ctrls0.busUtil                        0.26                       # Data bus utilization in percentage
system.mem_ctrls0.busUtilRead                    0.16                       # Data bus utilization in percentage for reads
system.mem_ctrls0.busUtilWrite                   0.10                       # Data bus utilization in percentage for writes
system.mem_ctrls0.avgRdQLen                      1.00                       # Average read queue length when enqueuing
system.mem_ctrls0.avgWrQLen                     23.77                       # Average write queue length when enqueuing
system.mem_ctrls0.readRowHits                  180891                       # Number of row buffer hits during reads
system.mem_ctrls0.writeRowHits                  46502                       # Number of row buffer hits during writes
system.mem_ctrls0.readRowHitRate                48.51                       # Row buffer hit rate for reads
system.mem_ctrls0.writeRowHitRate               19.49                       # Row buffer hit rate for writes
system.mem_ctrls0.avgGap                   1936393.17                       # Average gap between requests
system.mem_ctrls0.pageHitRate                   37.18                       # Row buffer hit rate, read and write combined
system.mem_ctrls0_0.actEnergy              1382760960                       # Energy for activate commands per rank (pJ)
system.mem_ctrls0_0.preEnergy               734954880                       # Energy for precharge commands per rank (pJ)
system.mem_ctrls0_0.readEnergy             1346618280                       # Energy for read commands per rank (pJ)
system.mem_ctrls0_0.writeEnergy             629010000                       # Energy for write commands per rank (pJ)
system.mem_ctrls0_0.refreshEnergy        41440872720.000008                       # Energy for refresh commands per rank (pJ)
system.mem_ctrls0_0.actBackEnergy         22686430920                       # Energy for active background per rank (pJ)
system.mem_ctrls0_0.preBackEnergy          1997433600                       # Energy for precharge background per rank (pJ)
system.mem_ctrls0_0.actPowerDownEnergy   109763072580                       # Energy for active power-down per rank (pJ)
system.mem_ctrls0_0.prePowerDownEnergy    54116291040                       # Energy for precharge power-down per rank (pJ)
system.mem_ctrls0_0.selfRefreshEnergy    186609362895                       # Energy for self refresh per rank (pJ)
system.mem_ctrls0_0.totalEnergy          420721307415                       # Total energy per rank (pJ)
system.mem_ctrls0_0.averagePower           354.721093                       # Core power per rank (mW)
system.mem_ctrls0_0.totalIdleTime        1130722508078                       # Total Idle time Per DRAM Rank
system.mem_ctrls0_0.memoryStateTime::IDLE   3521187275                       # Time in different power states
system.mem_ctrls0_0.memoryStateTime::REF  17604614000                       # Time in different power states
system.mem_ctrls0_0.memoryStateTime::SREF 749441218762                       # Time in different power states
system.mem_ctrls0_0.memoryStateTime::PRE_PDN 140928215013                       # Time in different power states
system.mem_ctrls0_0.memoryStateTime::ACT  33857946411                       # Time in different power states
system.mem_ctrls0_0.memoryStateTime::ACT_PDN 240709090551                       # Time in different power states
system.mem_ctrls0_1.actEnergy              1359755880                       # Energy for activate commands per rank (pJ)
system.mem_ctrls0_1.preEnergy               722727390                       # Energy for precharge commands per rank (pJ)
system.mem_ctrls0_1.readEnergy             1315709220                       # Energy for read commands per rank (pJ)
system.mem_ctrls0_1.writeEnergy             616607280                       # Energy for write commands per rank (pJ)
system.mem_ctrls0_1.refreshEnergy        42028468560.000008                       # Energy for refresh commands per rank (pJ)
system.mem_ctrls0_1.actBackEnergy         23004551910                       # Energy for active background per rank (pJ)
system.mem_ctrls0_1.preBackEnergy          2012447040                       # Energy for precharge background per rank (pJ)
system.mem_ctrls0_1.actPowerDownEnergy   110970749820                       # Energy for active power-down per rank (pJ)
system.mem_ctrls0_1.prePowerDownEnergy    55591731360                       # Energy for precharge power-down per rank (pJ)
system.mem_ctrls0_1.selfRefreshEnergy    184891316790                       # Energy for self refresh per rank (pJ)
system.mem_ctrls0_1.totalEnergy          422527853850                       # Total energy per rank (pJ)
system.mem_ctrls0_1.averagePower           356.244237                       # Core power per rank (mW)
system.mem_ctrls0_1.totalIdleTime        1130100411706                       # Total Idle time Per DRAM Rank
system.mem_ctrls0_1.memoryStateTime::IDLE   3536268746                       # Time in different power states
system.mem_ctrls0_1.memoryStateTime::REF  17853612000                       # Time in different power states
system.mem_ctrls0_1.memoryStateTime::SREF 742215071262                       # Time in different power states
system.mem_ctrls0_1.memoryStateTime::PRE_PDN 144769555809                       # Time in different power states
system.mem_ctrls0_1.memoryStateTime::ACT  34331501991                       # Time in different power states
system.mem_ctrls0_1.memoryStateTime::ACT_PDN 243356262204                       # Time in different power states
system.mem_ctrls1.pwrStateResidencyTicks::UNDEFINED 191237372187012                       # Cumulative time (in ticks) in various power states
system.mem_ctrls1.bytes_read::cpu.inst            128                       # Number of bytes read from this memory
system.mem_ctrls1.bytes_read::cpu.data             64                       # Number of bytes read from this memory
system.mem_ctrls1.bytes_read::switch_cpus.inst        14144                       # Number of bytes read from this memory
system.mem_ctrls1.bytes_read::switch_cpus.data     19440384                       # Number of bytes read from this memory
system.mem_ctrls1.bytes_read::switch_cpus_1.inst          768                       # Number of bytes read from this memory
system.mem_ctrls1.bytes_read::switch_cpus_1.data      4457216                       # Number of bytes read from this memory
system.mem_ctrls1.bytes_read::total          23912704                       # Number of bytes read from this memory
system.mem_ctrls1.bytes_inst_read::cpu.inst          128                       # Number of instructions bytes read from this memory
system.mem_ctrls1.bytes_inst_read::switch_cpus.inst        14144                       # Number of instructions bytes read from this memory
system.mem_ctrls1.bytes_inst_read::switch_cpus_1.inst          768                       # Number of instructions bytes read from this memory
system.mem_ctrls1.bytes_inst_read::total        15040                       # Number of instructions bytes read from this memory
system.mem_ctrls1.bytes_written::writebacks     15291904                       # Number of bytes written to this memory
system.mem_ctrls1.bytes_written::total       15291904                       # Number of bytes written to this memory
system.mem_ctrls1.num_reads::cpu.inst               2                       # Number of read requests responded to by this memory
system.mem_ctrls1.num_reads::cpu.data               1                       # Number of read requests responded to by this memory
system.mem_ctrls1.num_reads::switch_cpus.inst          221                       # Number of read requests responded to by this memory
system.mem_ctrls1.num_reads::switch_cpus.data       303756                       # Number of read requests responded to by this memory
system.mem_ctrls1.num_reads::switch_cpus_1.inst           12                       # Number of read requests responded to by this memory
system.mem_ctrls1.num_reads::switch_cpus_1.data        69644                       # Number of read requests responded to by this memory
system.mem_ctrls1.num_reads::total             373636                       # Number of read requests responded to by this memory
system.mem_ctrls1.num_writes::writebacks       238936                       # Number of write requests responded to by this memory
system.mem_ctrls1.num_writes::total            238936                       # Number of write requests responded to by this memory
system.mem_ctrls1.bw_read::cpu.inst               108                       # Total read bandwidth from this memory (bytes/s)
system.mem_ctrls1.bw_read::cpu.data                54                       # Total read bandwidth from this memory (bytes/s)
system.mem_ctrls1.bw_read::switch_cpus.inst        11925                       # Total read bandwidth from this memory (bytes/s)
system.mem_ctrls1.bw_read::switch_cpus.data     16390694                       # Total read bandwidth from this memory (bytes/s)
system.mem_ctrls1.bw_read::switch_cpus_1.inst          648                       # Total read bandwidth from this memory (bytes/s)
system.mem_ctrls1.bw_read::switch_cpus_1.data      3757995                       # Total read bandwidth from this memory (bytes/s)
system.mem_ctrls1.bw_read::total             20161424                       # Total read bandwidth from this memory (bytes/s)
system.mem_ctrls1.bw_inst_read::cpu.inst          108                       # Instruction read bandwidth from this memory (bytes/s)
system.mem_ctrls1.bw_inst_read::switch_cpus.inst        11925                       # Instruction read bandwidth from this memory (bytes/s)
system.mem_ctrls1.bw_inst_read::switch_cpus_1.inst          648                       # Instruction read bandwidth from this memory (bytes/s)
system.mem_ctrls1.bw_inst_read::total           12681                       # Instruction read bandwidth from this memory (bytes/s)
system.mem_ctrls1.bw_write::writebacks       12893003                       # Write bandwidth from this memory (bytes/s)
system.mem_ctrls1.bw_write::total            12893003                       # Write bandwidth from this memory (bytes/s)
system.mem_ctrls1.bw_total::writebacks       12893003                       # Total bandwidth to/from this memory (bytes/s)
system.mem_ctrls1.bw_total::cpu.inst              108                       # Total bandwidth to/from this memory (bytes/s)
system.mem_ctrls1.bw_total::cpu.data               54                       # Total bandwidth to/from this memory (bytes/s)
system.mem_ctrls1.bw_total::switch_cpus.inst        11925                       # Total bandwidth to/from this memory (bytes/s)
system.mem_ctrls1.bw_total::switch_cpus.data     16390694                       # Total bandwidth to/from this memory (bytes/s)
system.mem_ctrls1.bw_total::switch_cpus_1.inst          648                       # Total bandwidth to/from this memory (bytes/s)
system.mem_ctrls1.bw_total::switch_cpus_1.data      3757995                       # Total bandwidth to/from this memory (bytes/s)
system.mem_ctrls1.bw_total::total            33054426                       # Total bandwidth to/from this memory (bytes/s)
system.mem_ctrls1.readReqs                     373636                       # Number of read requests accepted
system.mem_ctrls1.writeReqs                    238936                       # Number of write requests accepted
system.mem_ctrls1.readBursts                   373636                       # Number of DRAM read bursts, including those serviced by the write queue
system.mem_ctrls1.writeBursts                  238936                       # Number of DRAM write bursts, including those merged in the write queue
system.mem_ctrls1.bytesReadDRAM              23854656                       # Total number of bytes read from DRAM
system.mem_ctrls1.bytesReadWrQ                  58048                       # Total number of bytes read from write queue
system.mem_ctrls1.bytesWritten               15290816                       # Total number of bytes written to DRAM
system.mem_ctrls1.bytesReadSys               23912704                       # Total read bytes from the system interface side
system.mem_ctrls1.bytesWrittenSys            15291904                       # Total written bytes from the system interface side
system.mem_ctrls1.servicedByWrQ                   907                       # Number of DRAM read bursts serviced by the write queue
system.mem_ctrls1.mergedWrBursts                    0                       # Number of DRAM write bursts merged with an existing one
system.mem_ctrls1.neitherReadNorWriteReqs            0                       # Number of requests that are neither read nor write
system.mem_ctrls1.perBankRdBursts::0            24528                       # Per bank write bursts
system.mem_ctrls1.perBankRdBursts::1            23972                       # Per bank write bursts
system.mem_ctrls1.perBankRdBursts::2            24727                       # Per bank write bursts
system.mem_ctrls1.perBankRdBursts::3            23789                       # Per bank write bursts
system.mem_ctrls1.perBankRdBursts::4            21929                       # Per bank write bursts
system.mem_ctrls1.perBankRdBursts::5            22819                       # Per bank write bursts
system.mem_ctrls1.perBankRdBursts::6            22742                       # Per bank write bursts
system.mem_ctrls1.perBankRdBursts::7            23760                       # Per bank write bursts
system.mem_ctrls1.perBankRdBursts::8            23856                       # Per bank write bursts
system.mem_ctrls1.perBankRdBursts::9            22728                       # Per bank write bursts
system.mem_ctrls1.perBankRdBursts::10           23207                       # Per bank write bursts
system.mem_ctrls1.perBankRdBursts::11           22685                       # Per bank write bursts
system.mem_ctrls1.perBankRdBursts::12           21670                       # Per bank write bursts
system.mem_ctrls1.perBankRdBursts::13           22700                       # Per bank write bursts
system.mem_ctrls1.perBankRdBursts::14           23156                       # Per bank write bursts
system.mem_ctrls1.perBankRdBursts::15           24461                       # Per bank write bursts
system.mem_ctrls1.perBankWrBursts::0            15925                       # Per bank write bursts
system.mem_ctrls1.perBankWrBursts::1            15435                       # Per bank write bursts
system.mem_ctrls1.perBankWrBursts::2            15780                       # Per bank write bursts
system.mem_ctrls1.perBankWrBursts::3            15011                       # Per bank write bursts
system.mem_ctrls1.perBankWrBursts::4            13631                       # Per bank write bursts
system.mem_ctrls1.perBankWrBursts::5            14585                       # Per bank write bursts
system.mem_ctrls1.perBankWrBursts::6            14605                       # Per bank write bursts
system.mem_ctrls1.perBankWrBursts::7            15376                       # Per bank write bursts
system.mem_ctrls1.perBankWrBursts::8            15388                       # Per bank write bursts
system.mem_ctrls1.perBankWrBursts::9            14605                       # Per bank write bursts
system.mem_ctrls1.perBankWrBursts::10           14868                       # Per bank write bursts
system.mem_ctrls1.perBankWrBursts::11           14620                       # Per bank write bursts
system.mem_ctrls1.perBankWrBursts::12           13975                       # Per bank write bursts
system.mem_ctrls1.perBankWrBursts::13           14368                       # Per bank write bursts
system.mem_ctrls1.perBankWrBursts::14           14842                       # Per bank write bursts
system.mem_ctrls1.perBankWrBursts::15           15905                       # Per bank write bursts
system.mem_ctrls1.numRdRetry                        0                       # Number of times read queue was full causing retry
system.mem_ctrls1.numWrRetry                        0                       # Number of times write queue was full causing retry
system.mem_ctrls1.totGap                 1185810611391                       # Total gap between requests
system.mem_ctrls1.readPktSize::0                    0                       # Read request sizes (log2)
system.mem_ctrls1.readPktSize::1                    0                       # Read request sizes (log2)
system.mem_ctrls1.readPktSize::2                    0                       # Read request sizes (log2)
system.mem_ctrls1.readPktSize::3                    0                       # Read request sizes (log2)
system.mem_ctrls1.readPktSize::4                    0                       # Read request sizes (log2)
system.mem_ctrls1.readPktSize::5                    0                       # Read request sizes (log2)
system.mem_ctrls1.readPktSize::6               373636                       # Read request sizes (log2)
system.mem_ctrls1.writePktSize::0                   0                       # Write request sizes (log2)
system.mem_ctrls1.writePktSize::1                   0                       # Write request sizes (log2)
system.mem_ctrls1.writePktSize::2                   0                       # Write request sizes (log2)
system.mem_ctrls1.writePktSize::3                   0                       # Write request sizes (log2)
system.mem_ctrls1.writePktSize::4                   0                       # Write request sizes (log2)
system.mem_ctrls1.writePktSize::5                   0                       # Write request sizes (log2)
system.mem_ctrls1.writePktSize::6              238936                       # Write request sizes (log2)
system.mem_ctrls1.rdQLenPdf::0                 366203                       # What read queue length does an incoming req see
system.mem_ctrls1.rdQLenPdf::1                   6317                       # What read queue length does an incoming req see
system.mem_ctrls1.rdQLenPdf::2                    177                       # What read queue length does an incoming req see
system.mem_ctrls1.rdQLenPdf::3                     32                       # What read queue length does an incoming req see
system.mem_ctrls1.rdQLenPdf::4                      0                       # What read queue length does an incoming req see
system.mem_ctrls1.rdQLenPdf::5                      0                       # What read queue length does an incoming req see
system.mem_ctrls1.rdQLenPdf::6                      0                       # What read queue length does an incoming req see
system.mem_ctrls1.rdQLenPdf::7                      0                       # What read queue length does an incoming req see
system.mem_ctrls1.rdQLenPdf::8                      0                       # What read queue length does an incoming req see
system.mem_ctrls1.rdQLenPdf::9                      0                       # What read queue length does an incoming req see
system.mem_ctrls1.rdQLenPdf::10                     0                       # What read queue length does an incoming req see
system.mem_ctrls1.rdQLenPdf::11                     0                       # What read queue length does an incoming req see
system.mem_ctrls1.rdQLenPdf::12                     0                       # What read queue length does an incoming req see
system.mem_ctrls1.rdQLenPdf::13                     0                       # What read queue length does an incoming req see
system.mem_ctrls1.rdQLenPdf::14                     0                       # What read queue length does an incoming req see
system.mem_ctrls1.rdQLenPdf::15                     0                       # What read queue length does an incoming req see
system.mem_ctrls1.rdQLenPdf::16                     0                       # What read queue length does an incoming req see
system.mem_ctrls1.rdQLenPdf::17                     0                       # What read queue length does an incoming req see
system.mem_ctrls1.rdQLenPdf::18                     0                       # What read queue length does an incoming req see
system.mem_ctrls1.rdQLenPdf::19                     0                       # What read queue length does an incoming req see
system.mem_ctrls1.rdQLenPdf::20                     0                       # What read queue length does an incoming req see
system.mem_ctrls1.rdQLenPdf::21                     0                       # What read queue length does an incoming req see
system.mem_ctrls1.rdQLenPdf::22                     0                       # What read queue length does an incoming req see
system.mem_ctrls1.rdQLenPdf::23                     0                       # What read queue length does an incoming req see
system.mem_ctrls1.rdQLenPdf::24                     0                       # What read queue length does an incoming req see
system.mem_ctrls1.rdQLenPdf::25                     0                       # What read queue length does an incoming req see
system.mem_ctrls1.rdQLenPdf::26                     0                       # What read queue length does an incoming req see
system.mem_ctrls1.rdQLenPdf::27                     0                       # What read queue length does an incoming req see
system.mem_ctrls1.rdQLenPdf::28                     0                       # What read queue length does an incoming req see
system.mem_ctrls1.rdQLenPdf::29                     0                       # What read queue length does an incoming req see
system.mem_ctrls1.rdQLenPdf::30                     0                       # What read queue length does an incoming req see
system.mem_ctrls1.rdQLenPdf::31                     0                       # What read queue length does an incoming req see
system.mem_ctrls1.wrQLenPdf::0                      2                       # What write queue length does an incoming req see
system.mem_ctrls1.wrQLenPdf::1                      2                       # What write queue length does an incoming req see
system.mem_ctrls1.wrQLenPdf::2                      2                       # What write queue length does an incoming req see
system.mem_ctrls1.wrQLenPdf::3                      2                       # What write queue length does an incoming req see
system.mem_ctrls1.wrQLenPdf::4                      2                       # What write queue length does an incoming req see
system.mem_ctrls1.wrQLenPdf::5                      2                       # What write queue length does an incoming req see
system.mem_ctrls1.wrQLenPdf::6                      2                       # What write queue length does an incoming req see
system.mem_ctrls1.wrQLenPdf::7                      2                       # What write queue length does an incoming req see
system.mem_ctrls1.wrQLenPdf::8                      2                       # What write queue length does an incoming req see
system.mem_ctrls1.wrQLenPdf::9                      2                       # What write queue length does an incoming req see
system.mem_ctrls1.wrQLenPdf::10                     2                       # What write queue length does an incoming req see
system.mem_ctrls1.wrQLenPdf::11                     2                       # What write queue length does an incoming req see
system.mem_ctrls1.wrQLenPdf::12                     2                       # What write queue length does an incoming req see
system.mem_ctrls1.wrQLenPdf::13                     2                       # What write queue length does an incoming req see
system.mem_ctrls1.wrQLenPdf::14                     2                       # What write queue length does an incoming req see
system.mem_ctrls1.wrQLenPdf::15                 10147                       # What write queue length does an incoming req see
system.mem_ctrls1.wrQLenPdf::16                 10400                       # What write queue length does an incoming req see
system.mem_ctrls1.wrQLenPdf::17                 13194                       # What write queue length does an incoming req see
system.mem_ctrls1.wrQLenPdf::18                 13600                       # What write queue length does an incoming req see
system.mem_ctrls1.wrQLenPdf::19                 13671                       # What write queue length does an incoming req see
system.mem_ctrls1.wrQLenPdf::20                 13673                       # What write queue length does an incoming req see
system.mem_ctrls1.wrQLenPdf::21                 13680                       # What write queue length does an incoming req see
system.mem_ctrls1.wrQLenPdf::22                 13683                       # What write queue length does an incoming req see
system.mem_ctrls1.wrQLenPdf::23                 13712                       # What write queue length does an incoming req see
system.mem_ctrls1.wrQLenPdf::24                 13727                       # What write queue length does an incoming req see
system.mem_ctrls1.wrQLenPdf::25                 13714                       # What write queue length does an incoming req see
system.mem_ctrls1.wrQLenPdf::26                 13690                       # What write queue length does an incoming req see
system.mem_ctrls1.wrQLenPdf::27                 13683                       # What write queue length does an incoming req see
system.mem_ctrls1.wrQLenPdf::28                 13700                       # What write queue length does an incoming req see
system.mem_ctrls1.wrQLenPdf::29                 13740                       # What write queue length does an incoming req see
system.mem_ctrls1.wrQLenPdf::30                 13674                       # What write queue length does an incoming req see
system.mem_ctrls1.wrQLenPdf::31                 13583                       # What write queue length does an incoming req see
system.mem_ctrls1.wrQLenPdf::32                 13575                       # What write queue length does an incoming req see
system.mem_ctrls1.wrQLenPdf::33                    52                       # What write queue length does an incoming req see
system.mem_ctrls1.wrQLenPdf::34                     6                       # What write queue length does an incoming req see
system.mem_ctrls1.wrQLenPdf::35                     1                       # What write queue length does an incoming req see
system.mem_ctrls1.wrQLenPdf::36                     1                       # What write queue length does an incoming req see
system.mem_ctrls1.wrQLenPdf::37                     0                       # What write queue length does an incoming req see
system.mem_ctrls1.wrQLenPdf::38                     0                       # What write queue length does an incoming req see
system.mem_ctrls1.wrQLenPdf::39                     0                       # What write queue length does an incoming req see
system.mem_ctrls1.wrQLenPdf::40                     0                       # What write queue length does an incoming req see
system.mem_ctrls1.wrQLenPdf::41                     0                       # What write queue length does an incoming req see
system.mem_ctrls1.wrQLenPdf::42                     0                       # What write queue length does an incoming req see
system.mem_ctrls1.wrQLenPdf::43                     0                       # What write queue length does an incoming req see
system.mem_ctrls1.wrQLenPdf::44                     0                       # What write queue length does an incoming req see
system.mem_ctrls1.wrQLenPdf::45                     0                       # What write queue length does an incoming req see
system.mem_ctrls1.wrQLenPdf::46                     0                       # What write queue length does an incoming req see
system.mem_ctrls1.wrQLenPdf::47                     0                       # What write queue length does an incoming req see
system.mem_ctrls1.wrQLenPdf::48                     0                       # What write queue length does an incoming req see
system.mem_ctrls1.wrQLenPdf::49                     0                       # What write queue length does an incoming req see
system.mem_ctrls1.wrQLenPdf::50                     0                       # What write queue length does an incoming req see
system.mem_ctrls1.wrQLenPdf::51                     0                       # What write queue length does an incoming req see
system.mem_ctrls1.wrQLenPdf::52                     0                       # What write queue length does an incoming req see
system.mem_ctrls1.wrQLenPdf::53                     0                       # What write queue length does an incoming req see
system.mem_ctrls1.wrQLenPdf::54                     0                       # What write queue length does an incoming req see
system.mem_ctrls1.wrQLenPdf::55                     0                       # What write queue length does an incoming req see
system.mem_ctrls1.wrQLenPdf::56                     0                       # What write queue length does an incoming req see
system.mem_ctrls1.wrQLenPdf::57                     0                       # What write queue length does an incoming req see
system.mem_ctrls1.wrQLenPdf::58                     0                       # What write queue length does an incoming req see
system.mem_ctrls1.wrQLenPdf::59                     0                       # What write queue length does an incoming req see
system.mem_ctrls1.wrQLenPdf::60                     0                       # What write queue length does an incoming req see
system.mem_ctrls1.wrQLenPdf::61                     0                       # What write queue length does an incoming req see
system.mem_ctrls1.wrQLenPdf::62                     0                       # What write queue length does an incoming req see
system.mem_ctrls1.wrQLenPdf::63                     0                       # What write queue length does an incoming req see
system.mem_ctrls1.bytesPerActivate::samples       384506                       # Bytes accessed per row activation
system.mem_ctrls1.bytesPerActivate::mean   101.807181                       # Bytes accessed per row activation
system.mem_ctrls1.bytesPerActivate::gmean    82.446760                       # Bytes accessed per row activation
system.mem_ctrls1.bytesPerActivate::stdev   109.145434                       # Bytes accessed per row activation
system.mem_ctrls1.bytesPerActivate::0-127       294750     76.66%     76.66% # Bytes accessed per row activation
system.mem_ctrls1.bytesPerActivate::128-255        62926     16.37%     93.02% # Bytes accessed per row activation
system.mem_ctrls1.bytesPerActivate::256-383        14145      3.68%     96.70% # Bytes accessed per row activation
system.mem_ctrls1.bytesPerActivate::384-511         6537      1.70%     98.40% # Bytes accessed per row activation
system.mem_ctrls1.bytesPerActivate::512-639         2154      0.56%     98.96% # Bytes accessed per row activation
system.mem_ctrls1.bytesPerActivate::640-767          990      0.26%     99.22% # Bytes accessed per row activation
system.mem_ctrls1.bytesPerActivate::768-895          657      0.17%     99.39% # Bytes accessed per row activation
system.mem_ctrls1.bytesPerActivate::896-1023          544      0.14%     99.53% # Bytes accessed per row activation
system.mem_ctrls1.bytesPerActivate::1024-1151         1803      0.47%    100.00% # Bytes accessed per row activation
system.mem_ctrls1.bytesPerActivate::total       384506                       # Bytes accessed per row activation
system.mem_ctrls1.rdPerTurnAround::samples        13575                       # Reads before turning the bus around for writes
system.mem_ctrls1.rdPerTurnAround::mean     27.456280                       # Reads before turning the bus around for writes
system.mem_ctrls1.rdPerTurnAround::stdev   246.382119                       # Reads before turning the bus around for writes
system.mem_ctrls1.rdPerTurnAround::0-1023        13574     99.99%     99.99% # Reads before turning the bus around for writes
system.mem_ctrls1.rdPerTurnAround::27648-28671            1      0.01%    100.00% # Reads before turning the bus around for writes
system.mem_ctrls1.rdPerTurnAround::total        13575                       # Reads before turning the bus around for writes
system.mem_ctrls1.wrPerTurnAround::samples        13575                       # Writes before turning the bus around for reads
system.mem_ctrls1.wrPerTurnAround::mean     17.599926                       # Writes before turning the bus around for reads
system.mem_ctrls1.wrPerTurnAround::gmean    17.573136                       # Writes before turning the bus around for reads
system.mem_ctrls1.wrPerTurnAround::stdev     0.958479                       # Writes before turning the bus around for reads
system.mem_ctrls1.wrPerTurnAround::16            3230     23.79%     23.79% # Writes before turning the bus around for reads
system.mem_ctrls1.wrPerTurnAround::17             168      1.24%     25.03% # Writes before turning the bus around for reads
system.mem_ctrls1.wrPerTurnAround::18            9119     67.17%     92.21% # Writes before turning the bus around for reads
system.mem_ctrls1.wrPerTurnAround::19             947      6.98%     99.18% # Writes before turning the bus around for reads
system.mem_ctrls1.wrPerTurnAround::20              91      0.67%     99.85% # Writes before turning the bus around for reads
system.mem_ctrls1.wrPerTurnAround::21              15      0.11%     99.96% # Writes before turning the bus around for reads
system.mem_ctrls1.wrPerTurnAround::22               3      0.02%     99.99% # Writes before turning the bus around for reads
system.mem_ctrls1.wrPerTurnAround::23               1      0.01%     99.99% # Writes before turning the bus around for reads
system.mem_ctrls1.wrPerTurnAround::24               1      0.01%    100.00% # Writes before turning the bus around for reads
system.mem_ctrls1.wrPerTurnAround::total        13575                       # Writes before turning the bus around for reads
system.mem_ctrls1.totQLat                 17834589170                       # Total ticks spent queuing
system.mem_ctrls1.totMemAccLat            24823257920                       # Total ticks spent from burst creation until serviced by the DRAM
system.mem_ctrls1.totBusLat                1863645000                       # Total ticks spent in databus transfers
system.mem_ctrls1.avgQLat                    47848.68                       # Average queueing delay per DRAM burst
system.mem_ctrls1.avgBusLat                   5000.00                       # Average bus latency per DRAM burst
system.mem_ctrls1.avgMemAccLat               66598.68                       # Average memory access latency per DRAM burst
system.mem_ctrls1.avgRdBW                       20.11                       # Average DRAM read bandwidth in MiByte/s
system.mem_ctrls1.avgWrBW                       12.89                       # Average achieved write bandwidth in MiByte/s
system.mem_ctrls1.avgRdBWSys                    20.16                       # Average system read bandwidth in MiByte/s
system.mem_ctrls1.avgWrBWSys                    12.89                       # Average system write bandwidth in MiByte/s
system.mem_ctrls1.peakBW                     12800.00                       # Theoretical peak bandwidth in MiByte/s
system.mem_ctrls1.busUtil                        0.26                       # Data bus utilization in percentage
system.mem_ctrls1.busUtilRead                    0.16                       # Data bus utilization in percentage for reads
system.mem_ctrls1.busUtilWrite                   0.10                       # Data bus utilization in percentage for writes
system.mem_ctrls1.avgRdQLen                      1.00                       # Average read queue length when enqueuing
system.mem_ctrls1.avgWrQLen                     23.57                       # Average write queue length when enqueuing
system.mem_ctrls1.readRowHits                  181057                       # Number of row buffer hits during reads
system.mem_ctrls1.writeRowHits                  46085                       # Number of row buffer hits during writes
system.mem_ctrls1.readRowHitRate                48.58                       # Row buffer hit rate for reads
system.mem_ctrls1.writeRowHitRate               19.29                       # Row buffer hit rate for writes
system.mem_ctrls1.avgGap                   1935789.77                       # Average gap between requests
system.mem_ctrls1.pageHitRate                   37.14                       # Row buffer hit rate, read and write combined
system.mem_ctrls1_0.actEnergy              1382860920                       # Energy for activate commands per rank (pJ)
system.mem_ctrls1_0.preEnergy               735008010                       # Energy for precharge commands per rank (pJ)
system.mem_ctrls1_0.readEnergy             1344219240                       # Energy for read commands per rank (pJ)
system.mem_ctrls1_0.writeEnergy             628216560                       # Energy for write commands per rank (pJ)
system.mem_ctrls1_0.refreshEnergy        41410140720.000008                       # Energy for refresh commands per rank (pJ)
system.mem_ctrls1_0.actBackEnergy         22954625040                       # Energy for active background per rank (pJ)
system.mem_ctrls1_0.preBackEnergy          1989997920                       # Energy for precharge background per rank (pJ)
system.mem_ctrls1_0.actPowerDownEnergy   109334022180                       # Energy for active power-down per rank (pJ)
system.mem_ctrls1_0.prePowerDownEnergy    54156487680                       # Energy for precharge power-down per rank (pJ)
system.mem_ctrls1_0.selfRefreshEnergy    186664423260                       # Energy for self refresh per rank (pJ)
system.mem_ctrls1_0.totalEnergy          420615040770                       # Total energy per rank (pJ)
system.mem_ctrls1_0.averagePower           354.631496                       # Core power per rank (mW)
system.mem_ctrls1_0.totalIdleTime        1130255252693                       # Total Idle time Per DRAM Rank
system.mem_ctrls1_0.memoryStateTime::IDLE   3501994822                       # Time in different power states
system.mem_ctrls1_0.memoryStateTime::REF  17591458000                       # Time in different power states
system.mem_ctrls1_0.memoryStateTime::SREF 749707277012                       # Time in different power states
system.mem_ctrls1_0.memoryStateTime::PRE_PDN 141032915512                       # Time in different power states
system.mem_ctrls1_0.memoryStateTime::ACT  34459978963                       # Time in different power states
system.mem_ctrls1_0.memoryStateTime::ACT_PDN 239768647703                       # Time in different power states
system.mem_ctrls1_1.actEnergy              1362511920                       # Energy for activate commands per rank (pJ)
system.mem_ctrls1_1.preEnergy               724192260                       # Energy for precharge commands per rank (pJ)
system.mem_ctrls1_1.readEnergy             1317065820                       # Energy for read commands per rank (pJ)
system.mem_ctrls1_1.writeEnergy             618940620                       # Energy for write commands per rank (pJ)
system.mem_ctrls1_1.refreshEnergy        42080712960.000008                       # Energy for refresh commands per rank (pJ)
system.mem_ctrls1_1.actBackEnergy         22841868210                       # Energy for active background per rank (pJ)
system.mem_ctrls1_1.preBackEnergy          2028723360                       # Energy for precharge background per rank (pJ)
system.mem_ctrls1_1.actPowerDownEnergy   111043081680                       # Energy for active power-down per rank (pJ)
system.mem_ctrls1_1.prePowerDownEnergy    55588323360                       # Energy for precharge power-down per rank (pJ)
system.mem_ctrls1_1.selfRefreshEnergy    184993490100                       # Energy for self refresh per rank (pJ)
system.mem_ctrls1_1.totalEnergy          422612727780                       # Total energy per rank (pJ)
system.mem_ctrls1_1.averagePower           356.315798                       # Core power per rank (mW)
system.mem_ctrls1_1.totalIdleTime        1130417862886                       # Total Idle time Per DRAM Rank
system.mem_ctrls1_1.memoryStateTime::IDLE   3582957110                       # Time in different power states
system.mem_ctrls1_1.memoryStateTime::REF  17876174000                       # Time in different power states
system.mem_ctrls1_1.memoryStateTime::SREF 742379768512                       # Time in different power states
system.mem_ctrls1_1.memoryStateTime::PRE_PDN 144761778219                       # Time in different power states
system.mem_ctrls1_1.memoryStateTime::ACT  33946058854                       # Time in different power states
system.mem_ctrls1_1.memoryStateTime::ACT_PDN 243515535317                       # Time in different power states
system.pwrStateResidencyTicks::UNDEFINED 191237372187012                       # Cumulative time (in ticks) in various power states
system.cpu.branchPred.lookups                       4                       # Number of BP lookups
system.cpu.branchPred.condPredicted                 2                       # Number of conditional branches predicted
system.cpu.branchPred.condIncorrect                 2                       # Number of conditional branches incorrect
system.cpu.branchPred.BTBLookups                    2                       # Number of BTB lookups
system.cpu.branchPred.BTBHits                       0                       # Number of BTB hits
system.cpu.branchPred.BTBCorrect                    0                       # Number of correct BTB predictions (this stat may not work properly.
system.cpu.branchPred.BTBHitPct              0.000000                       # BTB Hit Percentage
system.cpu.branchPred.usedRAS                       0                       # Number of times the RAS was used to get a target.
system.cpu.branchPred.RASInCorrect                  0                       # Number of incorrect RAS predictions.
system.cpu.branchPred.indirectLookups               0                       # Number of indirect predictor lookups.
system.cpu.branchPred.indirectHits                  0                       # Number of indirect target hits.
system.cpu.branchPred.indirectMisses                0                       # Number of indirect misses.
system.cpu.branchPredindirectMispredicted            0                       # Number of mispredicted indirect branches.
system.cpu_voltage_domain.voltage                   1                       # Voltage in Volts
system.cpu_clk_domain.clock                       333                       # Clock period in ticks
system.cpu.dtb.fetch_hits                           0                       # ITB hits
system.cpu.dtb.fetch_misses                         0                       # ITB misses
system.cpu.dtb.fetch_acv                            0                       # ITB acv
system.cpu.dtb.fetch_accesses                       0                       # ITB accesses
system.cpu.dtb.read_hits                            6                       # DTB read hits
system.cpu.dtb.read_misses                          0                       # DTB read misses
system.cpu.dtb.read_acv                             0                       # DTB read access violations
system.cpu.dtb.read_accesses                        6                       # DTB read accesses
system.cpu.dtb.write_hits                           1                       # DTB write hits
system.cpu.dtb.write_misses                         0                       # DTB write misses
system.cpu.dtb.write_acv                            0                       # DTB write access violations
system.cpu.dtb.write_accesses                       1                       # DTB write accesses
system.cpu.dtb.data_hits                            7                       # DTB hits
system.cpu.dtb.data_misses                          0                       # DTB misses
system.cpu.dtb.data_acv                             0                       # DTB access violations
system.cpu.dtb.data_accesses                        7                       # DTB accesses
system.cpu.itb.fetch_hits                           7                       # ITB hits
system.cpu.itb.fetch_misses                         0                       # ITB misses
system.cpu.itb.fetch_acv                            0                       # ITB acv
system.cpu.itb.fetch_accesses                       7                       # ITB accesses
system.cpu.itb.read_hits                            0                       # DTB read hits
system.cpu.itb.read_misses                          0                       # DTB read misses
system.cpu.itb.read_acv                             0                       # DTB read access violations
system.cpu.itb.read_accesses                        0                       # DTB read accesses
system.cpu.itb.write_hits                           0                       # DTB write hits
system.cpu.itb.write_misses                         0                       # DTB write misses
system.cpu.itb.write_acv                            0                       # DTB write access violations
system.cpu.itb.write_accesses                       0                       # DTB write accesses
system.cpu.itb.data_hits                            0                       # DTB hits
system.cpu.itb.data_misses                          0                       # DTB misses
system.cpu.itb.data_acv                             0                       # DTB access violations
system.cpu.itb.data_accesses                        0                       # DTB accesses
system.cpu.workload.num_syscalls                    0                       # Number of system calls
system.cpu.pwrStateResidencyTicks::ON    1186062272012                       # Cumulative time (in ticks) in various power states
system.cpu.numCycles                              851                       # number of cpu cycles simulated
system.cpu.numWorkItemsStarted                      0                       # number of work items this cpu started
system.cpu.numWorkItemsCompleted                    0                       # number of work items this cpu completed
system.cpu.fetch.icacheStallCycles                 50                       # Number of cycles fetch is stalled on an Icache miss
system.cpu.fetch.Insts                             19                       # Number of instructions fetch has processed
system.cpu.fetch.Branches                           4                       # Number of branches that fetch encountered
system.cpu.fetch.Cycles                             4                       # Number of cycles fetch has run and was not squashing or blocked
system.cpu.fetch.SquashCycles                       7                       # Number of cycles fetch has spent squashing
system.cpu.fetch.PendingDrainCycles                 6                       # Number of cycles fetch has spent waiting on pipes to drain
system.cpu.fetch.CacheLines                         7                       # Number of cache lines fetched
system.cpu.fetch.IcacheSquashes                     4                       # Number of outstanding Icache misses that were squashed
system.cpu.fetch.rateDist::samples                 63                       # Number of instructions fetched each cycle (Total)
system.cpu.fetch.rateDist::mean              0.301587                       # Number of instructions fetched each cycle (Total)
system.cpu.fetch.rateDist::stdev             1.432738                       # Number of instructions fetched each cycle (Total)
system.cpu.fetch.rateDist::underflows               0      0.00%      0.00% # Number of instructions fetched each cycle (Total)
system.cpu.fetch.rateDist::0                       59     93.65%     93.65% # Number of instructions fetched each cycle (Total)
system.cpu.fetch.rateDist::1                        1      1.59%     95.24% # Number of instructions fetched each cycle (Total)
system.cpu.fetch.rateDist::2                        1      1.59%     96.83% # Number of instructions fetched each cycle (Total)
system.cpu.fetch.rateDist::3                        0      0.00%     96.83% # Number of instructions fetched each cycle (Total)
system.cpu.fetch.rateDist::4                        0      0.00%     96.83% # Number of instructions fetched each cycle (Total)
[...]
system.switch_cpus_1.iq.int_inst_queue_writes    557601897                       # Number of integer instruction queue writes
system.switch_cpus_1.iq.int_inst_queue_wakeup_accesses    315077726                       # Number of integer instruction queue wakeup accesses
system.switch_cpus_1.iq.fp_inst_queue_reads          222                       # Number of floating instruction queue reads
system.switch_cpus_1.iq.fp_inst_queue_writes          177                       # Number of floating instruction queue writes
system.switch_cpus_1.iq.fp_inst_queue_wakeup_accesses          101                       # Number of floating instruction queue wakeup accesses
system.switch_cpus_1.iq.int_alu_accesses    339829475                       # Number of integer alu accesses
system.switch_cpus_1.iq.fp_alu_accesses           111                       # Number of floating point alu accesses
system.switch_cpus_1.iew.lsq.thread0.forwLoads      3701174                       # Number of loads that had data forwarded from stores
system.switch_cpus_1.iew.lsq.thread0.invAddrLoads            0                       # Number of loads ignored due to an invalid address
system.switch_cpus_1.iew.lsq.thread0.squashedLoads     42766640                       # Number of loads squashed
system.switch_cpus_1.iew.lsq.thread0.ignoredResponses        24533                       # Number of memory responses ignored because the instruction is squashed
system.switch_cpus_1.iew.lsq.thread0.memOrderViolation        11248                       # Number of memory ordering violations
system.switch_cpus_1.iew.lsq.thread0.squashedStores     13253080                       # Number of stores squashed
system.switch_cpus_1.iew.lsq.thread0.invAddrSwpfs            0                       # Number of software prefetches ignored due to an invalid address
system.switch_cpus_1.iew.lsq.thread0.blockedLoads            0                       # Number of blocked loads due to partial load-store forwarding
system.switch_cpus_1.iew.lsq.thread0.rescheduledLoads            0                       # Number of loads that were rescheduled
system.switch_cpus_1.iew.lsq.thread0.cacheBlocked      6231801                       # Number of times an access to memory failed due to the cache being blocked
system.switch_cpus_1.iew.iewIdleCycles              0                       # Number of cycles IEW is idle
system.switch_cpus_1.iew.iewSquashCycles      3267332                       # Number of cycles IEW is squashing
system.switch_cpus_1.iew.iewBlockCycles      35186015                       # Number of cycles IEW is blocking
system.switch_cpus_1.iew.iewUnblockCycles      8656376                       # Number of cycles IEW is unblocking
system.switch_cpus_1.iew.iewDispatchedInsts    379489683                       # Number of instructions dispatched to IQ
system.switch_cpus_1.iew.iewDispSquashedInsts       956379                       # Number of squashed instructions skipped by dispatch
system.switch_cpus_1.iew.iewDispLoadInsts     92199388                       # Number of dispatched load instructions
system.switch_cpus_1.iew.iewDispStoreInsts     27318568                       # Number of dispatched store instructions
system.switch_cpus_1.iew.iewDispNonSpecInsts            0                       # Number of dispatched non-speculative instructions
system.switch_cpus_1.iew.iewIQFullEvents       188259                       # Number of times the IQ has become full, causing a stall
system.switch_cpus_1.iew.iewLSQFullEvents      8392444                       # Number of times the LSQ has become full, causing a stall
system.switch_cpus_1.iew.memOrderViolationEvents        11248                       # Number of memory order violations
system.switch_cpus_1.iew.predictedTakenIncorrect      1674893                       # Number of branches that were predicted taken incorrectly
system.switch_cpus_1.iew.predictedNotTakenIncorrect      1792309                       # Number of branches that were predicted not taken incorrectly
system.switch_cpus_1.iew.branchMispredicts      3467202                       # Number of branch mispredicts detected at execute
system.switch_cpus_1.iew.iewExecutedInsts    329155095                       # Number of executed instructions
system.switch_cpus_1.iew.iewExecLoadInsts     86559183                       # Number of load instructions executed
system.switch_cpus_1.iew.iewExecSquashedInsts      6257225                       # Number of squashed instructions skipped in execute
system.switch_cpus_1.iew.exec_swp                   0                       # number of swp insts executed
system.switch_cpus_1.iew.exec_nop              694004                       # number of nop insts executed
system.switch_cpus_1.iew.exec_refs          107280404                       # number of memory reference insts executed
system.switch_cpus_1.iew.exec_branches       38310682                       # Number of branches executed
system.switch_cpus_1.iew.exec_stores         20721221                       # Number of stores executed
system.switch_cpus_1.iew.exec_rate           1.719302                       # Inst execution rate
system.switch_cpus_1.iew.wb_sent            318650388                       # cumulative count of insts sent to commit
system.switch_cpus_1.iew.wb_count           315077827                       # cumulative count of insts written-back
system.switch_cpus_1.iew.wb_producers       205113418                       # num instructions producing a value
system.switch_cpus_1.iew.wb_consumers       269593714                       # num instructions consuming a value
system.switch_cpus_1.iew.wb_rate             1.645771                       # insts written-back per cycle
system.switch_cpus_1.iew.wb_fanout           0.760824                       # average fanout of values written-back
system.switch_cpus_1.commit.commitSquashedInsts    169586033                       # The number of squashed insts skipped by commit
system.switch_cpus_1.commit.branchMispredicts      2823454                       # The number of times a branch was mispredicted
system.switch_cpus_1.commit.committed_per_cycle::samples    167934908                       # Number of insts commited each cycle
system.switch_cpus_1.commit.committed_per_cycle::mean     1.194147                       # Number of insts commited each cycle
system.switch_cpus_1.commit.committed_per_cycle::stdev     2.370375                       # Number of insts commited each cycle
system.switch_cpus_1.commit.committed_per_cycle::underflows            0      0.00%      0.00% # Number of insts commited each cycle
system.switch_cpus_1.commit.committed_per_cycle::0    113881495     67.81%     67.81% # Number of insts commited each cycle
system.switch_cpus_1.commit.committed_per_cycle::1     17229626     10.26%     78.07% # Number of insts commited each cycle
system.switch_cpus_1.commit.committed_per_cycle::2     11103429      6.61%     84.68% # Number of insts commited each cycle
system.switch_cpus_1.commit.committed_per_cycle::3      5015819      2.99%     87.67% # Number of insts commited each cycle
system.switch_cpus_1.commit.committed_per_cycle::4      2546063      1.52%     89.19% # Number of insts commited each cycle
system.switch_cpus_1.commit.committed_per_cycle::5      1934304      1.15%     90.34% # Number of insts commited each cycle
system.switch_cpus_1.commit.committed_per_cycle::6      1365075      0.81%     91.15% # Number of insts commited each cycle
system.switch_cpus_1.commit.committed_per_cycle::7       864007      0.51%     91.67% # Number of insts commited each cycle
system.switch_cpus_1.commit.committed_per_cycle::8     13995090      8.33%    100.00% # Number of insts commited each cycle
system.switch_cpus_1.commit.committed_per_cycle::overflows            0      0.00%    100.00% # Number of insts commited each cycle
system.switch_cpus_1.commit.committed_per_cycle::min_value            0                       # Number of insts commited each cycle
system.switch_cpus_1.commit.committed_per_cycle::max_value            8                       # Number of insts commited each cycle
system.switch_cpus_1.commit.committed_per_cycle::total    167934908                       # Number of insts commited each cycle
system.switch_cpus_1.commit.committedInsts    200538932                       # Number of instructions committed
system.switch_cpus_1.commit.committedOps    200538932                       # Number of ops (including micro ops) committed
system.switch_cpus_1.commit.swp_count               0                       # Number of s/w prefetches committed
system.switch_cpus_1.commit.refs             63498195                       # Number of memory references committed
system.switch_cpus_1.commit.loads            49432720                       # Number of loads committed
system.switch_cpus_1.commit.membars                 0                       # Number of memory barriers committed
system.switch_cpus_1.commit.branches         24329166                       # Number of branches committed
system.switch_cpus_1.commit.fp_insts               91                       # Number of committed floating point instructions.
system.switch_cpus_1.commit.int_insts       197997126                       # Number of committed integer instructions.
system.switch_cpus_1.commit.function_calls       749984                       # Number of function calls committed.
system.switch_cpus_1.commit.op_class_0::No_OpClass       538941      0.27%      0.27% # Class of committed instruction
system.switch_cpus_1.commit.op_class_0::IntAlu    136501742     68.07%     68.34% # Class of committed instruction
system.switch_cpus_1.commit.op_class_0::IntMult            0      0.00%     68.34% # Class of committed instruction
system.switch_cpus_1.commit.op_class_0::IntDiv            0      0.00%     68.34% # Class of committed instruction
system.switch_cpus_1.commit.op_class_0::FloatAdd           30      0.00%     68.34% # Class of committed instruction
system.switch_cpus_1.commit.op_class_0::FloatCmp            0      0.00%     68.34% # Class of committed instruction
system.switch_cpus_1.commit.op_class_0::FloatCvt           18      0.00%     68.34% # Class of committed instruction
system.switch_cpus_1.commit.op_class_0::FloatMult            0      0.00%     68.34% # Class of committed instruction
system.switch_cpus_1.commit.op_class_0::FloatMultAcc            0      0.00%     68.34% # Class of committed instruction
system.switch_cpus_1.commit.op_class_0::FloatDiv            6      0.00%     68.34% # Class of committed instruction
system.switch_cpus_1.commit.op_class_0::FloatMisc            0      0.00%     68.34% # Class of committed instruction
system.switch_cpus_1.commit.op_class_0::FloatSqrt            0      0.00%     68.34% # Class of committed instruction
system.switch_cpus_1.commit.op_class_0::SimdAdd            0      0.00%     68.34% # Class of committed instruction
system.switch_cpus_1.commit.op_class_0::SimdAddAcc            0      0.00%     68.34% # Class of committed instruction
system.switch_cpus_1.commit.op_class_0::SimdAlu            0      0.00%     68.34% # Class of committed instruction
system.switch_cpus_1.commit.op_class_0::SimdCmp            0      0.00%     68.34% # Class of committed instruction
system.switch_cpus_1.commit.op_class_0::SimdCvt            0      0.00%     68.34% # Class of committed instruction
system.switch_cpus_1.commit.op_class_0::SimdMisc            0      0.00%     68.34% # Class of committed instruction
system.switch_cpus_1.commit.op_class_0::SimdMult            0      0.00%     68.34% # Class of committed instruction
system.switch_cpus_1.commit.op_class_0::SimdMultAcc            0      0.00%     68.34% # Class of committed instruction
system.switch_cpus_1.commit.op_class_0::SimdShift            0      0.00%     68.34% # Class of committed instruction
system.switch_cpus_1.commit.op_class_0::SimdShiftAcc            0      0.00%     68.34% # Class of committed instruction
system.switch_cpus_1.commit.op_class_0::SimdSqrt            0      0.00%     68.34% # Class of committed instruction
system.switch_cpus_1.commit.op_class_0::SimdFloatAdd            0      0.00%     68.34% # Class of committed instruction
system.switch_cpus_1.commit.op_class_0::SimdFloatAlu            0      0.00%     68.34% # Class of committed instruction
system.switch_cpus_1.commit.op_class_0::SimdFloatCmp            0      0.00%     68.34% # Class of committed instruction
system.switch_cpus_1.commit.op_class_0::SimdFloatCvt            0      0.00%     68.34% # Class of committed instruction
system.switch_cpus_1.commit.op_class_0::SimdFloatDiv            0      0.00%     68.34% # Class of committed instruction
system.switch_cpus_1.commit.op_class_0::SimdFloatMisc            0      0.00%     68.34% # Class of committed instruction
system.switch_cpus_1.commit.op_class_0::SimdFloatMult            0      0.00%     68.34% # Class of committed instruction
system.switch_cpus_1.commit.op_class_0::SimdFloatMultAcc            0      0.00%     68.34% # Class of committed instruction
system.switch_cpus_1.commit.op_class_0::SimdFloatSqrt            0      0.00%     68.34% # Class of committed instruction
system.switch_cpus_1.commit.op_class_0::MemRead     49432701     24.65%     92.99% # Class of committed instruction
system.switch_cpus_1.commit.op_class_0::MemWrite     14065457      7.01%    100.00% # Class of committed instruction
system.switch_cpus_1.commit.op_class_0::FloatMemRead           19      0.00%    100.00% # Class of committed instruction
system.switch_cpus_1.commit.op_class_0::FloatMemWrite           18      0.00%    100.00% # Class of committed instruction
system.switch_cpus_1.commit.op_class_0::IprAccess            0      0.00%    100.00% # Class of committed instruction
system.switch_cpus_1.commit.op_class_0::InstPrefetch            0      0.00%    100.00% # Class of committed instruction
system.switch_cpus_1.commit.op_class_0::total    200538932                       # Class of committed instruction
system.switch_cpus_1.commit.bw_lim_events     13995090                       # number cycles where commit BW limit reached
system.switch_cpus_1.rob.rob_reads          518409159                       # The number of ROB reads
system.switch_cpus_1.rob.rob_writes         763785954                       # The number of ROB writes
system.switch_cpus_1.timesIdled                   134                       # Number of times that the entire CPU went into an idle state and unscheduled itself
system.switch_cpus_1.idleCycles                  8250                       # Total number of cycles that the CPU has spent unscheduled due to idling
system.switch_cpus_1.committedInsts         200000003                       # Number of Instructions Simulated
system.switch_cpus_1.committedOps           200000003                       # Number of Ops (including micro ops) Simulated
system.switch_cpus_1.cpi                     0.957235                       # CPI: Cycles Per Instruction
system.switch_cpus_1.cpi_total               0.957235                       # CPI: Total CPI of All Threads
system.switch_cpus_1.ipc                     1.044676                       # IPC: Instructions Per Cycle
system.switch_cpus_1.ipc_total               1.044676                       # IPC: Total IPC of All Threads
system.switch_cpus_1.int_regfile_reads      447886926                       # number of integer regfile reads
system.switch_cpus_1.int_regfile_writes     259596466                       # number of integer regfile writes
system.switch_cpus_1.fp_regfile_reads              63                       # number of floating regfile reads
system.switch_cpus_1.fp_regfile_writes            103                       # number of floating regfile writes
system.switch_cpus_1.misc_regfile_reads            12                       # number of misc regfile reads
system.switch_cpus_1.misc_regfile_writes            6                       # number of misc regfile writes
system.tol3bus.snoop_filter.tot_requests     15148756                       # Total number of requests made to the snoop filter.
system.tol3bus.snoop_filter.hit_single_requests      7572229                       # Number of requests hitting in the snoop filter with a single holder of the requested data.
system.tol3bus.snoop_filter.hit_multi_requests            0                       # Number of requests hitting in the snoop filter with multiple (>1) holders of the requested data.
system.tol3bus.snoop_filter.tot_snoops           1660                       # Total number of snoops made to the snoop filter.
system.tol3bus.snoop_filter.hit_single_snoops         1660                       # Number of snoops hitting in the snoop filter with a single holder of the requested data.
system.tol3bus.snoop_filter.hit_multi_snoops            0                       # Number of snoops hitting in the snoop filter with multiple (>1) holders of the requested data.
system.tol3bus.pwrStateResidencyTicks::UNDEFINED 191237372187012                       # Cumulative time (in ticks) in various power states
system.tol3bus.trans_dist::ReadResp           5401120                       # Transaction distribution
system.tol3bus.trans_dist::WritebackDirty      4373684                       # Transaction distribution
system.tol3bus.trans_dist::CleanEvict         3880525                       # Transaction distribution
system.tol3bus.trans_dist::UpgradeReq               5                       # Transaction distribution
system.tol3bus.trans_dist::UpgradeResp              5                       # Transaction distribution
system.tol3bus.trans_dist::ReadExReq          2175407                       # Transaction distribution
system.tol3bus.trans_dist::ReadExResp         2175407                       # Transaction distribution
system.tol3bus.trans_dist::ReadSharedReq      5401120                       # Transaction distribution
system.tol3bus.pkt_count_system.cpu.l2.mem_side::system.l3.cpu_side     22725288                       # Packet count per connected master and slave (bytes)
system.tol3bus.pkt_size_system.cpu.l2.mem_side::system.l3.cpu_side    734247808                       # Cumulative packet size per connected master and slave (bytes)
system.tol3bus.snoops                          681985                       # Total snoops (count)
system.tol3bus.snoopTraffic                  30565696                       # Total snoop traffic (bytes)
system.tol3bus.snoop_fanout::samples          8258517                       # Request fanout histogram
system.tol3bus.snoop_fanout::mean            0.000201                       # Request fanout histogram
system.tol3bus.snoop_fanout::stdev           0.014176                       # Request fanout histogram
system.tol3bus.snoop_fanout::underflows             0      0.00%      0.00% # Request fanout histogram
system.tol3bus.snoop_fanout::0                8256857     99.98%     99.98% # Request fanout histogram
system.tol3bus.snoop_fanout::1                   1660      0.02%    100.00% # Request fanout histogram
system.tol3bus.snoop_fanout::overflows              0      0.00%    100.00% # Request fanout histogram
system.tol3bus.snoop_fanout::min_value              0                       # Request fanout histogram
system.tol3bus.snoop_fanout::max_value              1                       # Request fanout histogram
system.tol3bus.snoop_fanout::total            8258517                       # Request fanout histogram
system.tol3bus.reqLayer0.occupancy         6341935383                       # Layer occupancy (ticks)
system.tol3bus.reqLayer0.utilization              0.5                       # Layer utilization (%)
system.tol3bus.respLayer0.occupancy        5045968647                       # Layer occupancy (ticks)
system.tol3bus.respLayer0.utilization             0.4                       # Layer utilization (%)

---------- End Simulation Statistics   ----------
