
---------- Begin Simulation Statistics ----------
sim_seconds                                  1.193488                       # Number of seconds simulated
sim_ticks                                1193487797387                       # Number of ticks simulated
final_tick                               191244797712387                       # Number of ticks from beginning of simulation (restored from checkpoints and never reset)
sim_freq                                 1000000000000                       # Frequency of simulated ticks
host_inst_rate                                 364844                       # Simulator instruction rate (inst/s)
host_op_rate                                   364844                       # Simulator op (including micro ops) rate (op/s)
host_tick_rate                              362864342                       # Simulator tick rate (ticks/s)
host_mem_usage                                2538032                       # Number of bytes of host memory used
host_seconds                                  3289.07                       # Real time elapsed on the host
sim_insts                                  1200000007                       # Number of instructions simulated
sim_ops                                    1200000007                       # Number of ops (including micro ops) simulated
system.voltage_domain.voltage                       1                       # Voltage in Volts
system.clk_domain.clock                          1000                       # Clock period in ticks
system.mem_ctrls0.pwrStateResidencyTicks::UNDEFINED 191244797712387                       # Cumulative time (in ticks) in various power states
system.mem_ctrls0.bytes_read::cpu.inst            192                       # Number of bytes read from this memory
system.mem_ctrls0.bytes_read::cpu.data            192                       # Number of bytes read from this memory
system.mem_ctrls0.bytes_read::switch_cpus.inst        12992                       # Number of bytes read from this memory
system.mem_ctrls0.bytes_read::switch_cpus.data     21705472                       # Number of bytes read from this memory
system.mem_ctrls0.bytes_read::switch_cpus_1.inst          384                       # Number of bytes read from this memory
system.mem_ctrls0.bytes_read::switch_cpus_1.data      4938944                       # Number of bytes read from this memory
system.mem_ctrls0.bytes_read::total          26658176                       # Number of bytes read from this memory
system.mem_ctrls0.bytes_inst_read::cpu.inst          192                       # Number of instructions bytes read from this memory
system.mem_ctrls0.bytes_inst_read::switch_cpus.inst        12992                       # Number of instructions bytes read from this memory
system.mem_ctrls0.bytes_inst_read::switch_cpus_1.inst          384                       # Number of instructions bytes read from this memory
system.mem_ctrls0.bytes_inst_read::total        13568                       # Number of instructions bytes read from this memory
system.mem_ctrls0.bytes_written::writebacks     18357312                       # Number of bytes written to this memory
system.mem_ctrls0.bytes_written::total       18357312                       # Number of bytes written to this memory
system.mem_ctrls0.num_reads::cpu.inst               3                       # Number of read requests responded to by this memory
system.mem_ctrls0.num_reads::cpu.data               3                       # Number of read requests responded to by this memory
system.mem_ctrls0.num_reads::switch_cpus.inst          203                       # Number of read requests responded to by this memory
system.mem_ctrls0.num_reads::switch_cpus.data       339148                       # Number of read requests responded to by this memory
system.mem_ctrls0.num_reads::switch_cpus_1.inst            6                       # Number of read requests responded to by this memory
system.mem_ctrls0.num_reads::switch_cpus_1.data        77171                       # Number of read requests responded to by this memory
system.mem_ctrls0.num_reads::total             416534                       # Number of read requests responded to by this memory
system.mem_ctrls0.num_writes::writebacks       286833                       # Number of write requests responded to by this memory
system.mem_ctrls0.num_writes::total            286833                       # Number of write requests responded to by this memory
system.mem_ctrls0.bw_read::cpu.inst               161                       # Total read bandwidth from this memory (bytes/s)
system.mem_ctrls0.bw_read::cpu.data               161                       # Total read bandwidth from this memory (bytes/s)
system.mem_ctrls0.bw_read::switch_cpus.inst        10886                       # Total read bandwidth from this memory (bytes/s)
system.mem_ctrls0.bw_read::switch_cpus.data     18186589                       # Total read bandwidth from this memory (bytes/s)
system.mem_ctrls0.bw_read::switch_cpus_1.inst          322                       # Total read bandwidth from this memory (bytes/s)
system.mem_ctrls0.bw_read::switch_cpus_1.data      4138244                       # Total read bandwidth from this memory (bytes/s)
system.mem_ctrls0.bw_read::total             22336362                       # Total read bandwidth from this memory (bytes/s)
system.mem_ctrls0.bw_inst_read::cpu.inst          161                       # Instruction read bandwidth from this memory (bytes/s)
system.mem_ctrls0.bw_inst_read::switch_cpus.inst        10886                       # Instruction read bandwidth from this memory (bytes/s)
system.mem_ctrls0.bw_inst_read::switch_cpus_1.inst          322                       # Instruction read bandwidth from this memory (bytes/s)
system.mem_ctrls0.bw_inst_read::total           11368                       # Instruction read bandwidth from this memory (bytes/s)
system.mem_ctrls0.bw_write::writebacks       15381231                       # Write bandwidth from this memory (bytes/s)
system.mem_ctrls0.bw_write::total            15381231                       # Write bandwidth from this memory (bytes/s)
system.mem_ctrls0.bw_total::writebacks       15381231                       # Total bandwidth to/from this memory (bytes/s)
system.mem_ctrls0.bw_total::cpu.inst              161                       # Total bandwidth to/from this memory (bytes/s)
system.mem_ctrls0.bw_total::cpu.data              161                       # Total bandwidth to/from this memory (bytes/s)
system.mem_ctrls0.bw_total::switch_cpus.inst        10886                       # Total bandwidth to/from this memory (bytes/s)
system.mem_ctrls0.bw_total::switch_cpus.data     18186589                       # Total bandwidth to/from this memory (bytes/s)
system.mem_ctrls0.bw_total::switch_cpus_1.inst          322                       # Total bandwidth to/from this memory (bytes/s)
system.mem_ctrls0.bw_total::switch_cpus_1.data      4138244                       # Total bandwidth to/from this memory (bytes/s)
system.mem_ctrls0.bw_total::total            37717594                       # Total bandwidth to/from this memory (bytes/s)
system.mem_ctrls0.readReqs                     416534                       # Number of read requests accepted
system.mem_ctrls0.writeReqs                    286833                       # Number of write requests accepted
system.mem_ctrls0.readBursts                   416534                       # Number of DRAM read bursts, including those serviced by the write queue
system.mem_ctrls0.writeBursts                  286833                       # Number of DRAM write bursts, including those merged in the write queue
system.mem_ctrls0.bytesReadDRAM              26586176                       # Total number of bytes read from DRAM
system.mem_ctrls0.bytesReadWrQ                  72000                       # Total number of bytes read from write queue
system.mem_ctrls0.bytesWritten               18355904                       # Total number of bytes written to DRAM
system.mem_ctrls0.bytesReadSys               26658176                       # Total read bytes from the system interface side
system.mem_ctrls0.bytesWrittenSys            18357312                       # Total written bytes from the system interface side
system.mem_ctrls0.servicedByWrQ                  1125                       # Number of DRAM read bursts serviced by the write queue
system.mem_ctrls0.mergedWrBursts                    4                       # Number of DRAM write bursts merged with an existing one
system.mem_ctrls0.neitherReadNorWriteReqs            0                       # Number of requests that are neither read nor write
system.mem_ctrls0.perBankRdBursts::0            27057                       # Per bank write bursts
system.mem_ctrls0.perBankRdBursts::1            26781                       # Per bank write bursts
system.mem_ctrls0.perBankRdBursts::2            27253                       # Per bank write bursts
system.mem_ctrls0.perBankRdBursts::3            26264                       # Per bank write bursts
system.mem_ctrls0.perBankRdBursts::4            24050                       # Per bank write bursts
system.mem_ctrls0.perBankRdBursts::5            25169                       # Per bank write bursts
system.mem_ctrls0.perBankRdBursts::6            25833                       # Per bank write bursts
system.mem_ctrls0.perBankRdBursts::7            26696                       # Per bank write bursts
system.mem_ctrls0.perBankRdBursts::8            27021                       # Per bank write bursts
system.mem_ctrls0.perBankRdBursts::9            25608                       # Per bank write bursts
system.mem_ctrls0.perBankRdBursts::10           26259                       # Per bank write bursts
system.mem_ctrls0.perBankRdBursts::11           25371                       # Per bank write bursts
system.mem_ctrls0.perBankRdBursts::12           24218                       # Per bank write bursts
system.mem_ctrls0.perBankRdBursts::13           25298                       # Per bank write bursts
system.mem_ctrls0.perBankRdBursts::14           25560                       # Per bank write bursts
system.mem_ctrls0.perBankRdBursts::15           26971                       # Per bank write bursts
system.mem_ctrls0.perBankWrBursts::0            18691                       # Per bank write bursts
system.mem_ctrls0.perBankWrBursts::1            18649                       # Per bank write bursts
system.mem_ctrls0.perBankWrBursts::2            18835                       # Per bank write bursts
system.mem_ctrls0.perBankWrBursts::3            17877                       # Per bank write bursts
system.mem_ctrls0.perBankWrBursts::4            16075                       # Per bank write bursts
system.mem_ctrls0.perBankWrBursts::5            17342                       # Per bank write bursts
system.mem_ctrls0.perBankWrBursts::6            17934                       # Per bank write bursts
system.mem_ctrls0.perBankWrBursts::7            18659                       # Per bank write bursts
system.mem_ctrls0.perBankWrBursts::8            18681                       # Per bank write bursts
system.mem_ctrls0.perBankWrBursts::9            17843                       # Per bank write bursts
system.mem_ctrls0.perBankWrBursts::10           17969                       # Per bank write bursts
system.mem_ctrls0.perBankWrBursts::11           17429                       # Per bank write bursts
system.mem_ctrls0.perBankWrBursts::12           16931                       # Per bank write bursts
system.mem_ctrls0.perBankWrBursts::13           17355                       # Per bank write bursts
system.mem_ctrls0.perBankWrBursts::14           17746                       # Per bank write bursts
system.mem_ctrls0.perBankWrBursts::15           18795                       # Per bank write bursts
system.mem_ctrls0.numRdRetry                        0                       # Number of times read queue was full causing retry
system.mem_ctrls0.numWrRetry                        0                       # Number of times write queue was full causing retry
system.mem_ctrls0.totGap                 1193430026349                       # Total gap between requests
system.mem_ctrls0.readPktSize::0                    0                       # Read request sizes (log2)
system.mem_ctrls0.readPktSize::1                    0                       # Read request sizes (log2)
system.mem_ctrls0.readPktSize::2                    0                       # Read request sizes (log2)
system.mem_ctrls0.readPktSize::3                    0                       # Read request sizes (log2)
system.mem_ctrls0.readPktSize::4                    0                       # Read request sizes (log2)
system.mem_ctrls0.readPktSize::5                    0                       # Read request sizes (log2)
system.mem_ctrls0.readPktSize::6               416534                       # Read request sizes (log2)
system.mem_ctrls0.writePktSize::0                   0                       # Write request sizes (log2)
system.mem_ctrls0.writePktSize::1                   0                       # Write request sizes (log2)
system.mem_ctrls0.writePktSize::2                   0                       # Write request sizes (log2)
system.mem_ctrls0.writePktSize::3                   0                       # Write request sizes (log2)
system.mem_ctrls0.writePktSize::4                   0                       # Write request sizes (log2)
system.mem_ctrls0.writePktSize::5                   0                       # Write request sizes (log2)
system.mem_ctrls0.writePktSize::6              286833                       # Write request sizes (log2)
system.mem_ctrls0.rdQLenPdf::0                 407510                       # What read queue length does an incoming req see
system.mem_ctrls0.rdQLenPdf::1                   7650                       # What read queue length does an incoming req see
system.mem_ctrls0.rdQLenPdf::2                    231                       # What read queue length does an incoming req see
system.mem_ctrls0.rdQLenPdf::3                     17                       # What read queue length does an incoming req see
system.mem_ctrls0.rdQLenPdf::4                      1                       # What read queue length does an incoming req see
system.mem_ctrls0.rdQLenPdf::5                      0                       # What read queue length does an incoming req see
system.mem_ctrls0.rdQLenPdf::6                      0                       # What read queue length does an incoming req see
system.mem_ctrls0.rdQLenPdf::7                      0                       # What read queue length does an incoming req see
system.mem_ctrls0.rdQLenPdf::8                      0                       # What read queue length does an incoming req see
system.mem_ctrls0.rdQLenPdf::9                      0                       # What read queue length does an incoming req see
system.mem_ctrls0.rdQLenPdf::10                     0                       # What read queue length does an incoming req see
system.mem_ctrls0.rdQLenPdf::11                     0                       # What read queue length does an incoming req see
system.mem_ctrls0.rdQLenPdf::12                     0                       # What read queue length does an incoming req see
system.mem_ctrls0.rdQLenPdf::13                     0                       # What read queue length does an incoming req see
system.mem_ctrls0.rdQLenPdf::14                     0                       # What read queue length does an incoming req see
system.mem_ctrls0.rdQLenPdf::15                     0                       # What read queue length does an incoming req see
system.mem_ctrls0.rdQLenPdf::16                     0                       # What read queue length does an incoming req see
system.mem_ctrls0.rdQLenPdf::17                     0                       # What read queue length does an incoming req see
system.mem_ctrls0.rdQLenPdf::18                     0                       # What read queue length does an incoming req see
system.mem_ctrls0.rdQLenPdf::19                     0                       # What read queue length does an incoming req see
system.mem_ctrls0.rdQLenPdf::20                     0                       # What read queue length does an incoming req see
system.mem_ctrls0.rdQLenPdf::21                     0                       # What read queue length does an incoming req see
system.mem_ctrls0.rdQLenPdf::22                     0                       # What read queue length does an incoming req see
system.mem_ctrls0.rdQLenPdf::23                     0                       # What read queue length does an incoming req see
system.mem_ctrls0.rdQLenPdf::24                     0                       # What read queue length does an incoming req see
system.mem_ctrls0.rdQLenPdf::25                     0                       # What read queue length does an incoming req see
system.mem_ctrls0.rdQLenPdf::26                     0                       # What read queue length does an incoming req see
system.mem_ctrls0.rdQLenPdf::27                     0                       # What read queue length does an incoming req see
system.mem_ctrls0.rdQLenPdf::28                     0                       # What read queue length does an incoming req see
system.mem_ctrls0.rdQLenPdf::29                     0                       # What read queue length does an incoming req see
system.mem_ctrls0.rdQLenPdf::30                     0                       # What read queue length does an incoming req see
system.mem_ctrls0.rdQLenPdf::31                     0                       # What read queue length does an incoming req see
system.mem_ctrls0.wrQLenPdf::0                      2                       # What write queue length does an incoming req see
system.mem_ctrls0.wrQLenPdf::1                      2                       # What write queue length does an incoming req see
system.mem_ctrls0.wrQLenPdf::2                      2                       # What write queue length does an incoming req see
system.mem_ctrls0.wrQLenPdf::3                      2                       # What write queue length does an incoming req see
system.mem_ctrls0.wrQLenPdf::4                      2                       # What write queue length does an incoming req see
system.mem_ctrls0.wrQLenPdf::5                      2                       # What write queue length does an incoming req see
system.mem_ctrls0.wrQLenPdf::6                      2                       # What write queue length does an incoming req see
system.mem_ctrls0.wrQLenPdf::7                      2                       # What write queue length does an incoming req see
system.mem_ctrls0.wrQLenPdf::8                      2                       # What write queue length does an incoming req see
system.mem_ctrls0.wrQLenPdf::9                      2                       # What write queue length does an incoming req see
system.mem_ctrls0.wrQLenPdf::10                     2                       # What write queue length does an incoming req see
system.mem_ctrls0.wrQLenPdf::11                     2                       # What write queue length does an incoming req see
system.mem_ctrls0.wrQLenPdf::12                     2                       # What write queue length does an incoming req see
system.mem_ctrls0.wrQLenPdf::13                     2                       # What write queue length does an incoming req see
system.mem_ctrls0.wrQLenPdf::14                     2                       # What write queue length does an incoming req see
system.mem_ctrls0.wrQLenPdf::15                 12185                       # What write queue length does an incoming req see
system.mem_ctrls0.wrQLenPdf::16                 12478                       # What write queue length does an incoming req see
system.mem_ctrls0.wrQLenPdf::17                 15786                       # What write queue length does an incoming req see
system.mem_ctrls0.wrQLenPdf::18                 16297                       # What write queue length does an incoming req see
system.mem_ctrls0.wrQLenPdf::19                 16438                       # What write queue length does an incoming req see
system.mem_ctrls0.wrQLenPdf::20                 16445                       # What write queue length does an incoming req see
system.mem_ctrls0.wrQLenPdf::21                 16428                       # What write queue length does an incoming req see
system.mem_ctrls0.wrQLenPdf::22                 16467                       # What write queue length does an incoming req see
system.mem_ctrls0.wrQLenPdf::23                 16475                       # What write queue length does an incoming req see
system.mem_ctrls0.wrQLenPdf::24                 16502                       # What write queue length does an incoming req see
system.mem_ctrls0.wrQLenPdf::25                 16447                       # What write queue length does an incoming req see
system.mem_ctrls0.wrQLenPdf::26                 16429                       # What write queue length does an incoming req see
system.mem_ctrls0.wrQLenPdf::27                 16453                       # What write queue length does an incoming req see
system.mem_ctrls0.wrQLenPdf::28                 16417                       # What write queue length does an incoming req see
system.mem_ctrls0.wrQLenPdf::29                 16474                       # What write queue length does an incoming req see
system.mem_ctrls0.wrQLenPdf::30                 16413                       # What write queue length does an incoming req see
system.mem_ctrls0.wrQLenPdf::31                 16292                       # What write queue length does an incoming req see
system.mem_ctrls0.wrQLenPdf::32                 16278                       # What write queue length does an incoming req see
system.mem_ctrls0.wrQLenPdf::33                    71                       # What write queue length does an incoming req see
system.mem_ctrls0.wrQLenPdf::34                    17                       # What write queue length does an incoming req see
system.mem_ctrls0.wrQLenPdf::35                     7                       # What write queue length does an incoming req see
system.mem_ctrls0.wrQLenPdf::36                     0                       # What write queue length does an incoming req see
system.mem_ctrls0.wrQLenPdf::37                     0                       # What write queue length does an incoming req see
system.mem_ctrls0.wrQLenPdf::38                     0                       # What write queue length does an incoming req see
system.mem_ctrls0.wrQLenPdf::39                     0                       # What write queue length does an incoming req see
system.mem_ctrls0.wrQLenPdf::40                     0                       # What write queue length does an incoming req see
system.mem_ctrls0.wrQLenPdf::41                     0                       # What write queue length does an incoming req see
system.mem_ctrls0.wrQLenPdf::42                     0                       # What write queue length does an incoming req see
system.mem_ctrls0.wrQLenPdf::43                     0                       # What write queue length does an incoming req see
system.mem_ctrls0.wrQLenPdf::44                     0                       # What write queue length does an incoming req see
system.mem_ctrls0.wrQLenPdf::45                     0                       # What write queue length does an incoming req see
system.mem_ctrls0.wrQLenPdf::46                     0                       # What write queue length does an incoming req see
system.mem_ctrls0.wrQLenPdf::47                     0                       # What write queue length does an incoming req see
system.mem_ctrls0.wrQLenPdf::48                     0                       # What write queue length does an incoming req see
system.mem_ctrls0.wrQLenPdf::49                     0                       # What write queue length does an incoming req see
system.mem_ctrls0.wrQLenPdf::50                     0                       # What write queue length does an incoming req see
system.mem_ctrls0.wrQLenPdf::51                     0                       # What write queue length does an incoming req see
system.mem_ctrls0.wrQLenPdf::52                     0                       # What write queue length does an incoming req see
system.mem_ctrls0.wrQLenPdf::53                     0                       # What write queue length does an incoming req see
system.mem_ctrls0.wrQLenPdf::54                     0                       # What write queue length does an incoming req see
system.mem_ctrls0.wrQLenPdf::55                     0                       # What write queue length does an incoming req see
system.mem_ctrls0.wrQLenPdf::56                     0                       # What write queue length does an incoming req see
system.mem_ctrls0.wrQLenPdf::57                     0                       # What write queue length does an incoming req see
system.mem_ctrls0.wrQLenPdf::58                     0                       # What write queue length does an incoming req see
system.mem_ctrls0.wrQLenPdf::59                     0                       # What write queue length does an incoming req see
system.mem_ctrls0.wrQLenPdf::60                     0                       # What write queue length does an incoming req see
system.mem_ctrls0.wrQLenPdf::61                     0                       # What write queue length does an incoming req see
system.mem_ctrls0.wrQLenPdf::62                     0                       # What write queue length does an incoming req see
system.mem_ctrls0.wrQLenPdf::63                     0                       # What write queue length does an incoming req see
system.mem_ctrls0.bytesPerActivate::samples       452043                       # Bytes accessed per row activation
system.mem_ctrls0.bytesPerActivate::mean    99.419922                       # Bytes accessed per row activation
system.mem_ctrls0.bytesPerActivate::gmean    81.558052                       # Bytes accessed per row activation
system.mem_ctrls0.bytesPerActivate::stdev   104.188482                       # Bytes accessed per row activation
system.mem_ctrls0.bytesPerActivate::0-127       348581     77.11%     77.11% # Bytes accessed per row activation
system.mem_ctrls0.bytesPerActivate::128-255        75164     16.63%     93.74% # Bytes accessed per row activation
system.mem_ctrls0.bytesPerActivate::256-383        15128      3.35%     97.09% # Bytes accessed per row activation
system.mem_ctrls0.bytesPerActivate::384-511         6669      1.48%     98.56% # Bytes accessed per row activation
system.mem_ctrls0.bytesPerActivate::512-639         2259      0.50%     99.06% # Bytes accessed per row activation
system.mem_ctrls0.bytesPerActivate::640-767         1006      0.22%     99.28% # Bytes accessed per row activation
system.mem_ctrls0.bytesPerActivate::768-895          757      0.17%     99.45% # Bytes accessed per row activation
system.mem_ctrls0.bytesPerActivate::896-1023          558      0.12%     99.58% # Bytes accessed per row activation
system.mem_ctrls0.bytesPerActivate::1024-1151         1921      0.42%    100.00% # Bytes accessed per row activation
system.mem_ctrls0.bytesPerActivate::total       452043                       # Bytes accessed per row activation
system.mem_ctrls0.rdPerTurnAround::samples        16277                       # Reads before turning the bus around for writes
system.mem_ctrls0.rdPerTurnAround::mean     25.519383                       # Reads before turning the bus around for writes
system.mem_ctrls0.rdPerTurnAround::stdev   225.349522                       # Reads before turning the bus around for writes
system.mem_ctrls0.rdPerTurnAround::0-1023        16276     99.99%     99.99% # Reads before turning the bus around for writes
system.mem_ctrls0.rdPerTurnAround::28672-29695            1      0.01%    100.00% # Reads before turning the bus around for writes
system.mem_ctrls0.rdPerTurnAround::total        16277                       # Reads before turning the bus around for writes
system.mem_ctrls0.wrPerTurnAround::samples        16277                       # Writes before turning the bus around for reads
system.mem_ctrls0.wrPerTurnAround::mean     17.620630                       # Writes before turning the bus around for reads
system.mem_ctrls0.wrPerTurnAround::gmean    17.592054                       # Writes before turning the bus around for reads
system.mem_ctrls0.wrPerTurnAround::stdev     0.995640                       # Writes before turning the bus around for reads
system.mem_ctrls0.wrPerTurnAround::16            3871     23.78%     23.78% # Writes before turning the bus around for reads
system.mem_ctrls0.wrPerTurnAround::17             183      1.12%     24.91% # Writes before turning the bus around for reads
system.mem_ctrls0.wrPerTurnAround::18           10802     66.36%     91.27% # Writes before turning the bus around for reads
system.mem_ctrls0.wrPerTurnAround::19            1191      7.32%     98.59% # Writes before turning the bus around for reads
system.mem_ctrls0.wrPerTurnAround::20             171      1.05%     99.64% # Writes before turning the bus around for reads
system.mem_ctrls0.wrPerTurnAround::21              38      0.23%     99.87% # Writes before turning the bus around for reads
system.mem_ctrls0.wrPerTurnAround::22              14      0.09%     99.96% # Writes before turning the bus around for reads
system.mem_ctrls0.wrPerTurnAround::23               4      0.02%     99.98% # Writes before turning the bus around for reads
system.mem_ctrls0.wrPerTurnAround::24               1      0.01%     99.99% # Writes before turning the bus around for reads
system.mem_ctrls0.wrPerTurnAround::26               1      0.01%     99.99% # Writes before turning the bus around for reads
system.mem_ctrls0.wrPerTurnAround::31               1      0.01%    100.00% # Writes before turning the bus around for reads
system.mem_ctrls0.wrPerTurnAround::total        16277                       # Writes before turning the bus around for reads
system.mem_ctrls0.totQLat                 19319668112                       # Total ticks spent queuing
system.mem_ctrls0.totMemAccLat            27108586862                       # Total ticks spent from burst creation until serviced by the DRAM
system.mem_ctrls0.totBusLat                2077045000                       # Total ticks spent in databus transfers
system.mem_ctrls0.avgQLat                    46507.58                       # Average queueing delay per DRAM burst
system.mem_ctrls0.avgBusLat                   5000.00                       # Average bus latency per DRAM burst
system.mem_ctrls0.avgMemAccLat               65257.58                       # Average memory access latency per DRAM burst
system.mem_ctrls0.avgRdBW                       22.28                       # Average DRAM read bandwidth in MiByte/s
system.mem_ctrls0.avgWrBW                       15.38                       # Average achieved write bandwidth in MiByte/s
system.mem_ctrls0.avgRdBWSys                    22.34                       # Average system read bandwidth in MiByte/s
system.mem_ctrls0.avgWrBWSys                    15.38                       # Average system write bandwidth in MiByte/s
system.mem_ctrls0.peakBW                     12800.00                       # Theoretical peak bandwidth in MiByte/s
system.mem_ctrls0.busUtil                        0.29                       # Data bus utilization in percentage
system.mem_ctrls0.busUtilRead                    0.17                       # Data bus utilization in percentage for reads
system.mem_ctrls0.busUtilWrite                   0.12                       # Data bus utilization in percentage for writes
system.mem_ctrls0.avgRdQLen                      1.00                       # Average read queue length when enqueuing
system.mem_ctrls0.avgWrQLen                     22.92                       # Average write queue length when enqueuing
system.mem_ctrls0.readRowHits                  195097                       # Number of row buffer hits during reads
system.mem_ctrls0.writeRowHits                  55080                       # Number of row buffer hits during writes
system.mem_ctrls0.readRowHitRate                46.97                       # Row buffer hit rate for reads
system.mem_ctrls0.writeRowHitRate               19.20                       # Row buffer hit rate for writes
system.mem_ctrls0.avgGap                   1696738.72                       # Average gap between requests
system.mem_ctrls0.pageHitRate                   35.63                       # Row buffer hit rate, read and write combined
system.mem_ctrls0_0.actEnergy              1622029500                       # Energy for activate commands per rank (pJ)
system.mem_ctrls0_0.preEnergy               862129125                       # Energy for precharge commands per rank (pJ)
system.mem_ctrls0_0.readEnergy             1492995420                       # Energy for read commands per rank (pJ)
system.mem_ctrls0_0.writeEnergy             752003640                       # Energy for write commands per rank (pJ)
system.mem_ctrls0_0.refreshEnergy        45129327360.000008                       # Energy for refresh commands per rank (pJ)
system.mem_ctrls0_0.actBackEnergy         26572529040                       # Energy for active background per rank (pJ)
system.mem_ctrls0_0.preBackEnergy          2160091200                       # Energy for precharge background per rank (pJ)
system.mem_ctrls0_0.actPowerDownEnergy   118434631350                       # Energy for active power-down per rank (pJ)
system.mem_ctrls0_0.prePowerDownEnergy    58875541440                       # Energy for precharge power-down per rank (pJ)
system.mem_ctrls0_0.selfRefreshEnergy    179191540830                       # Energy for self refresh per rank (pJ)
system.mem_ctrls0_0.totalEnergy          435108759315                       # Total energy per rank (pJ)
system.mem_ctrls0_0.averagePower           364.569088                       # Core power per rank (mW)
system.mem_ctrls0_0.totalIdleTime        1129510954300                       # Total Idle time Per DRAM Rank
system.mem_ctrls0_0.memoryStateTime::IDLE   3782713532                       # Time in different power states
system.mem_ctrls0_0.memoryStateTime::REF  19170394000                       # Time in different power states
system.mem_ctrls0_0.memoryStateTime::SREF 716507177387                       # Time in different power states
system.mem_ctrls0_0.memoryStateTime::PRE_PDN 153321949762                       # Time in different power states
system.mem_ctrls0_0.memoryStateTime::ACT  40980062940                       # Time in different power states
system.mem_ctrls0_0.memoryStateTime::ACT_PDN 259725499766                       # Time in different power states
system.mem_ctrls0_1.actEnergy              1605557520                       # Energy for activate commands per rank (pJ)
system.mem_ctrls0_1.preEnergy               853374060                       # Energy for precharge commands per rank (pJ)
system.mem_ctrls0_1.readEnergy             1473024840                       # Energy for read commands per rank (pJ)
system.mem_ctrls0_1.writeEnergy             745149780                       # Energy for write commands per rank (pJ)
system.mem_ctrls0_1.refreshEnergy        45649927440.000008                       # Energy for refresh commands per rank (pJ)
system.mem_ctrls0_1.actBackEnergy         26407664520                       # Energy for active background per rank (pJ)
system.mem_ctrls0_1.preBackEnergy          2172315360                       # Energy for precharge background per rank (pJ)
system.mem_ctrls0_1.actPowerDownEnergy   120386384310                       # Energy for active power-down per rank (pJ)
system.mem_ctrls0_1.prePowerDownEnergy    59754522720                       # Energy for precharge power-down per rank (pJ)
system.mem_ctrls0_1.selfRefreshEnergy    177720985965                       # Energy for self refresh per rank (pJ)
system.mem_ctrls0_1.totalEnergy          436784949615                       # Total energy per rank (pJ)
system.mem_ctrls0_1.averagePower           365.973532                       # Core power per rank (mW)
system.mem_ctrls0_1.totalIdleTime        1129639173691                       # Total Idle time Per DRAM Rank
system.mem_ctrls0_1.memoryStateTime::IDLE   3798918669                       # Time in different power states
system.mem_ctrls0_1.memoryStateTime::REF  19390890000                       # Time in different power states
system.mem_ctrls0_1.memoryStateTime::SREF 710267485471                       # Time in different power states
system.mem_ctrls0_1.memoryStateTime::PRE_PDN 155611222560                       # Time in different power states
system.mem_ctrls0_1.memoryStateTime::ACT  40413453680                       # Time in different power states
system.mem_ctrls0_1.memoryStateTime::ACT_PDN 264005827007                       # Time in different power states
system.mem_ctrls1.pwrStateResidencyTicks::UNDEFINED 191244797712387                       # Cumulative time (in ticks) in various power states
system.mem_ctrls1.bytes_read::cpu.inst            128                       # Number of bytes read from this memory
system.mem_ctrls1.bytes_read::cpu.data             64                       # Number of bytes read from this memory
system.mem_ctrls1.bytes_read::switch_cpus.inst        14144                       # Number of bytes read from this memory
system.mem_ctrls1.bytes_read::switch_cpus.data     21712448                       # Number of bytes read from this memory
system.mem_ctrls1.bytes_read::switch_cpus_1.inst          768                       # Number of bytes read from this memory
system.mem_ctrls1.bytes_read::switch_cpus_1.data      4958464                       # Number of bytes read from this memory
system.mem_ctrls1.bytes_read::total          26686016                       # Number of bytes read from this memory
system.mem_ctrls1.bytes_inst_read::cpu.inst          128                       # Number of instructions bytes read from this memory
system.mem_ctrls1.bytes_inst_read::switch_cpus.inst        14144                       # Number of instructions bytes read from this memory
system.mem_ctrls1.bytes_inst_read::switch_cpus_1.inst          768                       # Number of instructions bytes read from this memory
system.mem_ctrls1.bytes_inst_read::total        15040                       # Number of instructions bytes read from this memory
system.mem_ctrls1.bytes_written::writebacks     18386432                       # Number of bytes written to this memory
system.mem_ctrls1.bytes_written::total       18386432                       # Number of bytes written to this memory
system.mem_ctrls1.num_reads::cpu.inst               2                       # Number of read requests responded to by this memory
system.mem_ctrls1.num_reads::cpu.data               1                       # Number of read requests responded to by this memory
system.mem_ctrls1.num_reads::switch_cpus.inst          221                       # Number of read requests responded to by this memory
system.mem_ctrls1.num_reads::switch_cpus.data       339257                       # Number of read requests responded to by this memory
system.mem_ctrls1.num_reads::switch_cpus_1.inst           12                       # Number of read requests responded to by this memory
system.mem_ctrls1.num_reads::switch_cpus_1.data        77476                       # Number of read requests responded to by this memory
system.mem_ctrls1.num_reads::total             416969                       # Number of read requests responded to by this memory
system.mem_ctrls1.num_writes::writebacks       287288                       # Number of write requests responded to by this memory
system.mem_ctrls1.num_writes::total            287288                       # Number of write requests responded to by this memory
system.mem_ctrls1.bw_read::cpu.inst               107                       # Total read bandwidth from this memory (bytes/s)
system.mem_ctrls1.bw_read::cpu.data                54                       # Total read bandwidth from this memory (bytes/s)
system.mem_ctrls1.bw_read::switch_cpus.inst        11851                       # Total read bandwidth from this memory (bytes/s)
system.mem_ctrls1.bw_read::switch_cpus.data     18192434                       # Total read bandwidth from this memory (bytes/s)
system.mem_ctrls1.bw_read::switch_cpus_1.inst          643                       # Total read bandwidth from this memory (bytes/s)
system.mem_ctrls1.bw_read::switch_cpus_1.data      4154600                       # Total read bandwidth from this memory (bytes/s)
system.mem_ctrls1.bw_read::total             22359689                       # Total read bandwidth from this memory (bytes/s)
system.mem_ctrls1.bw_inst_read::cpu.inst          107                       # Instruction read bandwidth from this memory (bytes/s)
system.mem_ctrls1.bw_inst_read::switch_cpus.inst        11851                       # Instruction read bandwidth from this memory (bytes/s)
system.mem_ctrls1.bw_inst_read::switch_cpus_1.inst          643                       # Instruction read bandwidth from this memory (bytes/s)
system.mem_ctrls1.bw_inst_read::total           12602                       # Instruction read bandwidth from this memory (bytes/s)
system.mem_ctrls1.bw_write::writebacks       15405630                       # Write bandwidth from this memory (bytes/s)
system.mem_ctrls1.bw_write::total            15405630                       # Write bandwidth from this memory (bytes/s)
system.mem_ctrls1.bw_total::writebacks       15405630                       # Total bandwidth to/from this memory (bytes/s)
system.mem_ctrls1.bw_total::cpu.inst              107                       # Total bandwidth to/from this memory (bytes/s)
system.mem_ctrls1.bw_total::cpu.data               54                       # Total bandwidth to/from this memory (bytes/s)
system.mem_ctrls1.bw_total::switch_cpus.inst        11851                       # Total bandwidth to/from this memory (bytes/s)
system.mem_ctrls1.bw_total::switch_cpus.data     18192434                       # Total bandwidth to/from this memory (bytes/s)
system.mem_ctrls1.bw_total::switch_cpus_1.inst          643                       # Total bandwidth to/from this memory (bytes/s)
system.mem_ctrls1.bw_total::switch_cpus_1.data      4154600                       # Total bandwidth to/from this memory (bytes/s)
system.mem_ctrls1.bw_total::total            37765320                       # Total bandwidth to/from this memory (bytes/s)
system.mem_ctrls1.readReqs                     416969                       # Number of read requests accepted
system.mem_ctrls1.writeReqs                    287288                       # Number of write requests accepted
system.mem_ctrls1.readBursts                   416969                       # Number of DRAM read bursts, including those serviced by the write queue
system.mem_ctrls1.writeBursts                  287288                       # Number of DRAM write bursts, including those merged in the write queue
system.mem_ctrls1.bytesReadDRAM              26621184                       # Total number of bytes read from DRAM
system.mem_ctrls1.bytesReadWrQ                  64832                       # Total number of bytes read from write queue
system.mem_ctrls1.bytesWritten               18385024                       # Total number of bytes written to DRAM
system.mem_ctrls1.bytesReadSys               26686016                       # Total read bytes from the system interface side
system.mem_ctrls1.bytesWrittenSys            18386432                       # Total written bytes from the system interface side
system.mem_ctrls1.servicedByWrQ                  1013                       # Number of DRAM read bursts serviced by the write queue
system.mem_ctrls1.mergedWrBursts                    2                       # Number of DRAM write bursts merged with an existing one
system.mem_ctrls1.neitherReadNorWriteReqs            0                       # Number of requests that are neither read nor write
system.mem_ctrls1.perBankRdBursts::0            27336                       # Per bank write bursts
system.mem_ctrls1.perBankRdBursts::1            26813                       # Per bank write bursts
system.mem_ctrls1.perBankRdBursts::2            27225                       # Per bank write bursts
system.mem_ctrls1.perBankRdBursts::3            26334                       # Per bank write bursts
system.mem_ctrls1.perBankRdBursts::4            24041                       # Per bank write bursts
system.mem_ctrls1.perBankRdBursts::5            25400                       # Per bank write bursts
system.mem_ctrls1.perBankRdBursts::6            25752                       # Per bank write bursts
system.mem_ctrls1.perBankRdBursts::7            26649                       # Per bank write bursts
system.mem_ctrls1.perBankRdBursts::8            26922                       # Per bank write bursts
system.mem_ctrls1.perBankRdBursts::9            25621                       # Per bank write bursts
system.mem_ctrls1.perBankRdBursts::10           26100                       # Per bank write bursts
system.mem_ctrls1.perBankRdBursts::11           25448                       # Per bank write bursts
system.mem_ctrls1.perBankRdBursts::12           24169                       # Per bank write bursts
system.mem_ctrls1.perBankRdBursts::13           25355                       # Per bank write bursts
system.mem_ctrls1.perBankRdBursts::14           25638                       # Per bank write bursts
system.mem_ctrls1.perBankRdBursts::15           27153                       # Per bank write bursts
system.mem_ctrls1.perBankWrBursts::0            18948                       # Per bank write bursts
system.mem_ctrls1.perBankWrBursts::1            18608                       # Per bank write bursts
system.mem_ctrls1.perBankWrBursts::2            18866                       # Per bank write bursts
system.mem_ctrls1.perBankWrBursts::3            17938                       # Per bank write bursts
system.mem_ctrls1.perBankWrBursts::4            16059                       # Per bank write bursts
system.mem_ctrls1.perBankWrBursts::5            17346                       # Per bank write bursts
system.mem_ctrls1.perBankWrBursts::6            17784                       # Per bank write bursts
system.mem_ctrls1.perBankWrBursts::7            18606                       # Per bank write bursts
system.mem_ctrls1.perBankWrBursts::8            18609                       # Per bank write bursts
system.mem_ctrls1.perBankWrBursts::9            17882                       # Per bank write bursts
system.mem_ctrls1.perBankWrBursts::10           17899                       # Per bank write bursts
system.mem_ctrls1.perBankWrBursts::11           17595                       # Per bank write bursts
system.mem_ctrls1.perBankWrBursts::12           16873                       # Per bank write bursts
system.mem_ctrls1.perBankWrBursts::13           17418                       # Per bank write bursts
system.mem_ctrls1.perBankWrBursts::14           17785                       # Per bank write bursts
system.mem_ctrls1.perBankWrBursts::15           19050                       # Per bank write bursts
system.mem_ctrls1.numRdRetry                        0                       # Number of times read queue was full causing retry
system.mem_ctrls1.numWrRetry                        0                       # Number of times write queue was full causing retry
system.mem_ctrls1.totGap                 1193473192140                       # Total gap between requests
system.mem_ctrls1.readPktSize::0                    0                       # Read request sizes (log2)
system.mem_ctrls1.readPktSize::1                    0                       # Read request sizes (log2)
system.mem_ctrls1.readPktSize::2                    0                       # Read request sizes (log2)
system.mem_ctrls1.readPktSize::3                    0                       # Read request sizes (log2)
system.mem_ctrls1.readPktSize::4                    0                       # Read request sizes (log2)
system.mem_ctrls1.readPktSize::5                    0                       # Read request sizes (log2)
system.mem_ctrls1.readPktSize::6               416969                       # Read request sizes (log2)
system.mem_ctrls1.writePktSize::0                   0                       # Write request sizes (log2)
system.mem_ctrls1.writePktSize::1                   0                       # Write request sizes (log2)
system.mem_ctrls1.writePktSize::2                   0                       # Write request sizes (log2)
system.mem_ctrls1.writePktSize::3                   0                       # Write request sizes (log2)
system.mem_ctrls1.writePktSize::4                   0                       # Write request sizes (log2)
system.mem_ctrls1.writePktSize::5                   0                       # Write request sizes (log2)
system.mem_ctrls1.writePktSize::6              287288                       # Write request sizes (log2)
system.mem_ctrls1.rdQLenPdf::0                 407973                       # What read queue length does an incoming req see
system.mem_ctrls1.rdQLenPdf::1                   7679                       # What read queue length does an incoming req see
system.mem_ctrls1.rdQLenPdf::2                    271                       # What read queue length does an incoming req see
system.mem_ctrls1.rdQLenPdf::3                     33                       # What read queue length does an incoming req see
system.mem_ctrls1.rdQLenPdf::4                      0                       # What read queue length does an incoming req see
system.mem_ctrls1.rdQLenPdf::5                      0                       # What read queue length does an incoming req see
system.mem_ctrls1.rdQLenPdf::6                      0                       # What read queue length does an incoming req see
system.mem_ctrls1.rdQLenPdf::7                      0                       # What read queue length does an incoming req see
system.mem_ctrls1.rdQLenPdf::8                      0                       # What read queue length does an incoming req see
system.mem_ctrls1.rdQLenPdf::9                      0                       # What read queue length does an incoming req see
system.mem_ctrls1.rdQLenPdf::10                     0                       # What read queue length does an incoming req see
system.mem_ctrls1.rdQLenPdf::11                     0                       # What read queue length does an incoming req see
system.mem_ctrls1.rdQLenPdf::12                     0                       # What read queue length does an incoming req see
system.mem_ctrls1.rdQLenPdf::13                     0                       # What read queue length does an incoming req see
system.mem_ctrls1.rdQLenPdf::14                     0                       # What read queue length does an incoming req see
system.mem_ctrls1.rdQLenPdf::15                     0                       # What read queue length does an incoming req see
system.mem_ctrls1.rdQLenPdf::16                     0                       # What read queue length does an incoming req see
system.mem_ctrls1.rdQLenPdf::17                     0                       # What read queue length does an incoming req see
system.mem_ctrls1.rdQLenPdf::18                     0                       # What read queue length does an incoming req see
system.mem_ctrls1.rdQLenPdf::19                     0                       # What read queue length does an incoming req see
system.mem_ctrls1.rdQLenPdf::20                     0                       # What read queue length does an incoming req see
system.mem_ctrls1.rdQLenPdf::21                     0                       # What read queue length does an incoming req see
system.mem_ctrls1.rdQLenPdf::22                     0                       # What read queue length does an incoming req see
system.mem_ctrls1.rdQLenPdf::23                     0                       # What read queue length does an incoming req see
system.mem_ctrls1.rdQLenPdf::24                     0                       # What read queue length does an incoming req see
system.mem_ctrls1.rdQLenPdf::25                     0                       # What read queue length does an incoming req see
system.mem_ctrls1.rdQLenPdf::26                     0                       # What read queue length does an incoming req see
system.mem_ctrls1.rdQLenPdf::27                     0                       # What read queue length does an incoming req see
system.mem_ctrls1.rdQLenPdf::28                     0                       # What read queue length does an incoming req see
system.mem_ctrls1.rdQLenPdf::29                     0                       # What read queue length does an incoming req see
system.mem_ctrls1.rdQLenPdf::30                     0                       # What read queue length does an incoming req see
system.mem_ctrls1.rdQLenPdf::31                     0                       # What read queue length does an incoming req see
system.mem_ctrls1.wrQLenPdf::0                      2                       # What write queue length does an incoming req see
system.mem_ctrls1.wrQLenPdf::1                      2                       # What write queue length does an incoming req see
system.mem_ctrls1.wrQLenPdf::2                      2                       # What write queue length does an incoming req see
system.mem_ctrls1.wrQLenPdf::3                      2                       # What write queue length does an incoming req see
system.mem_ctrls1.wrQLenPdf::4                      2                       # What write queue length does an incoming req see
system.mem_ctrls1.wrQLenPdf::5                      2                       # What write queue length does an incoming req see
system.mem_ctrls1.wrQLenPdf::6                      2                       # What write queue length does an incoming req see
system.mem_ctrls1.wrQLenPdf::7                      2                       # What write queue length does an incoming req see
system.mem_ctrls1.wrQLenPdf::8                      2                       # What write queue length does an incoming req see
system.mem_ctrls1.wrQLenPdf::9                      2                       # What write queue length does an incoming req see
system.mem_ctrls1.wrQLenPdf::10                     2                       # What write queue length does an incoming req see
system.mem_ctrls1.wrQLenPdf::11                     2                       # What write queue length does an incoming req see
system.mem_ctrls1.wrQLenPdf::12                     2                       # What write queue length does an incoming req see
system.mem_ctrls1.wrQLenPdf::13                     2                       # What write queue length does an incoming req see
system.mem_ctrls1.wrQLenPdf::14                     2                       # What write queue length does an incoming req see
system.mem_ctrls1.wrQLenPdf::15                 12150                       # What write queue length does an incoming req see
system.mem_ctrls1.wrQLenPdf::16                 12484                       # What write queue length does an incoming req see
system.mem_ctrls1.wrQLenPdf::17                 15778                       # What write queue length does an incoming req see
system.mem_ctrls1.wrQLenPdf::18                 16355                       # What write queue length does an incoming req see
system.mem_ctrls1.wrQLenPdf::19                 16446                       # What write queue length does an incoming req see
system.mem_ctrls1.wrQLenPdf::20                 16447                       # What write queue length does an incoming req see
system.mem_ctrls1.wrQLenPdf::21                 16474                       # What write queue length does an incoming req see
system.mem_ctrls1.wrQLenPdf::22                 16477                       # What write queue length does an incoming req see
system.mem_ctrls1.wrQLenPdf::23                 16497                       # What write queue length does an incoming req see
system.mem_ctrls1.wrQLenPdf::24                 16531                       # What write queue length does an incoming req see
system.mem_ctrls1.wrQLenPdf::25                 16501                       # What write queue length does an incoming req see
system.mem_ctrls1.wrQLenPdf::26                 16461                       # What write queue length does an incoming req see
system.mem_ctrls1.wrQLenPdf::27                 16476                       # What write queue length does an incoming req see
system.mem_ctrls1.wrQLenPdf::28                 16480                       # What write queue length does an incoming req see
system.mem_ctrls1.wrQLenPdf::29                 16501                       # What write queue length does an incoming req see
system.mem_ctrls1.wrQLenPdf::30                 16444                       # What write queue length does an incoming req see
system.mem_ctrls1.wrQLenPdf::31                 16326                       # What write queue length does an incoming req see
system.mem_ctrls1.wrQLenPdf::32                 16315                       # What write queue length does an incoming req see
system.mem_ctrls1.wrQLenPdf::33                    90                       # What write queue length does an incoming req see
system.mem_ctrls1.wrQLenPdf::34                    18                       # What write queue length does an incoming req see
system.mem_ctrls1.wrQLenPdf::35                     5                       # What write queue length does an incoming req see
system.mem_ctrls1.wrQLenPdf::36                     0                       # What write queue length does an incoming req see
system.mem_ctrls1.wrQLenPdf::37                     0                       # What write queue length does an incoming req see
system.mem_ctrls1.wrQLenPdf::38                     0                       # What write queue length does an incoming req see
system.mem_ctrls1.wrQLenPdf::39                     0                       # What write queue length does an incoming req see
system.mem_ctrls1.wrQLenPdf::40                     0                       # What write queue length does an incoming req see
system.mem_ctrls1.wrQLenPdf::41                     0                       # What write queue length does an incoming req see
system.mem_ctrls1.wrQLenPdf::42                     0                       # What write queue length does an incoming req see
system.mem_ctrls1.wrQLenPdf::43                     0                       # What write queue length does an incoming req see
system.mem_ctrls1.wrQLenPdf::44                     0                       # What write queue length does an incoming req see
system.mem_ctrls1.wrQLenPdf::45                     0                       # What write queue length does an incoming req see
system.mem_ctrls1.wrQLenPdf::46                     0                       # What write queue length does an incoming req see
system.mem_ctrls1.wrQLenPdf::47                     0                       # What write queue length does an incoming req see
system.mem_ctrls1.wrQLenPdf::48                     0                       # What write queue length does an incoming req see
system.mem_ctrls1.wrQLenPdf::49                     0                       # What write queue length does an incoming req see
system.mem_ctrls1.wrQLenPdf::50                     0                       # What write queue length does an incoming req see
system.mem_ctrls1.wrQLenPdf::51                     0                       # What write queue length does an incoming req see
system.mem_ctrls1.wrQLenPdf::52                     0                       # What write queue length does an incoming req see
system.mem_ctrls1.wrQLenPdf::53                     0                       # What write queue length does an incoming req see
system.mem_ctrls1.wrQLenPdf::54                     0                       # What write queue length does an incoming req see
system.mem_ctrls1.wrQLenPdf::55                     0                       # What write queue length does an incoming req see
system.mem_ctrls1.wrQLenPdf::56                     0                       # What write queue length does an incoming req see
system.mem_ctrls1.wrQLenPdf::57                     0                       # What write queue length does an incoming req see
system.mem_ctrls1.wrQLenPdf::58                     0                       # What write queue length does an incoming req see
system.mem_ctrls1.wrQLenPdf::59                     0                       # What write queue length does an incoming req see
system.mem_ctrls1.wrQLenPdf::60                     0                       # What write queue length does an incoming req see
system.mem_ctrls1.wrQLenPdf::61                     0                       # What write queue length does an incoming req see
system.mem_ctrls1.wrQLenPdf::62                     0                       # What write queue length does an incoming req see
system.mem_ctrls1.wrQLenPdf::63                     0                       # What write queue length does an incoming req see
system.mem_ctrls1.bytesPerActivate::samples       452344                       # Bytes accessed per row activation
system.mem_ctrls1.bytesPerActivate::mean    99.495534                       # Bytes accessed per row activation
system.mem_ctrls1.bytesPerActivate::gmean    81.606114                       # Bytes accessed per row activation
system.mem_ctrls1.bytesPerActivate::stdev   104.263151                       # Bytes accessed per row activation
system.mem_ctrls1.bytesPerActivate::0-127       348532     77.05%     77.05% # Bytes accessed per row activation
system.mem_ctrls1.bytesPerActivate::128-255        75471     16.68%     93.73% # Bytes accessed per row activation
system.mem_ctrls1.bytesPerActivate::256-383        15206      3.36%     97.10% # Bytes accessed per row activation
system.mem_ctrls1.bytesPerActivate::384-511         6627      1.47%     98.56% # Bytes accessed per row activation
system.mem_ctrls1.bytesPerActivate::512-639         2242      0.50%     99.06% # Bytes accessed per row activation
system.mem_ctrls1.bytesPerActivate::640-767         1019      0.23%     99.28% # Bytes accessed per row activation
system.mem_ctrls1.bytesPerActivate::768-895          737      0.16%     99.45% # Bytes accessed per row activation
system.mem_ctrls1.bytesPerActivate::896-1023          623      0.14%     99.58% # Bytes accessed per row activation
system.mem_ctrls1.bytesPerActivate::1024-1151         1887      0.42%    100.00% # Bytes accessed per row activation
system.mem_ctrls1.bytesPerActivate::total       452344                       # Bytes accessed per row activation
system.mem_ctrls1.rdPerTurnAround::samples        16313                       # Reads before turning the bus around for writes
system.mem_ctrls1.rdPerTurnAround::mean     25.495065                       # Reads before turning the bus around for writes
system.mem_ctrls1.rdPerTurnAround::stdev   226.900393                       # Reads before turning the bus around for writes
system.mem_ctrls1.rdPerTurnAround::0-1023        16312     99.99%     99.99% # Reads before turning the bus around for writes
system.mem_ctrls1.rdPerTurnAround::28672-29695            1      0.01%    100.00% # Reads before turning the bus around for writes
system.mem_ctrls1.rdPerTurnAround::total        16313                       # Reads before turning the bus around for writes
system.mem_ctrls1.wrPerTurnAround::samples        16313                       # Writes before turning the bus around for reads
system.mem_ctrls1.wrPerTurnAround::mean     17.609636                       # Writes before turning the bus around for reads
system.mem_ctrls1.wrPerTurnAround::gmean    17.581475                       # Writes before turning the bus around for reads
system.mem_ctrls1.wrPerTurnAround::stdev     0.985493                       # Writes before turning the bus around for reads
system.mem_ctrls1.wrPerTurnAround::16            3922     24.04%     24.04% # Writes before turning the bus around for reads
system.mem_ctrls1.wrPerTurnAround::17             198      1.21%     25.26% # Writes before turning the bus around for reads
system.mem_ctrls1.wrPerTurnAround::18           10797     66.19%     91.44% # Writes before turning the bus around for reads
system.mem_ctrls1.wrPerTurnAround::19            1188      7.28%     98.72% # Writes before turning the bus around for reads
system.mem_ctrls1.wrPerTurnAround::20             162      0.99%     99.72% # Writes before turning the bus around for reads
system.mem_ctrls1.wrPerTurnAround::21              30      0.18%     99.90% # Writes before turning the bus around for reads
system.mem_ctrls1.wrPerTurnAround::22              11      0.07%     99.97% # Writes before turning the bus around for reads
system.mem_ctrls1.wrPerTurnAround::23               3      0.02%     99.99% # Writes before turning the bus around for reads
system.mem_ctrls1.wrPerTurnAround::24               1      0.01%     99.99% # Writes before turning the bus around for reads
system.mem_ctrls1.wrPerTurnAround::25               1      0.01%    100.00% # Writes before turning the bus around for reads
system.mem_ctrls1.wrPerTurnAround::total        16313                       # Writes before turning the bus around for reads
system.mem_ctrls1.totQLat                 19343014836                       # Total ticks spent queuing
system.mem_ctrls1.totMemAccLat            27142189836                       # Total ticks spent from burst creation until serviced by the DRAM
system.mem_ctrls1.totBusLat                2079780000                       # Total ticks spent in databus transfers
system.mem_ctrls1.avgQLat                    46502.55                       # Average queueing delay per DRAM burst
system.mem_ctrls1.avgBusLat                   5000.00                       # Average bus latency per DRAM burst
system.mem_ctrls1.avgMemAccLat               65252.55                       # Average memory access latency per DRAM burst
system.mem_ctrls1.avgRdBW                       22.31                       # Average DRAM read bandwidth in MiByte/s
system.mem_ctrls1.avgWrBW                       15.40                       # Average achieved write bandwidth in MiByte/s
system.mem_ctrls1.avgRdBWSys                    22.36                       # Average system read bandwidth in MiByte/s
system.mem_ctrls1.avgWrBWSys                    15.41                       # Average system write bandwidth in MiByte/s
system.mem_ctrls1.peakBW                     12800.00                       # Theoretical peak bandwidth in MiByte/s
system.mem_ctrls1.busUtil                        0.29                       # Data bus utilization in percentage
system.mem_ctrls1.busUtilRead                    0.17                       # Data bus utilization in percentage for reads
system.mem_ctrls1.busUtilWrite                   0.12                       # Data bus utilization in percentage for writes
system.mem_ctrls1.avgRdQLen                      1.00                       # Average read queue length when enqueuing
system.mem_ctrls1.avgWrQLen                     23.07                       # Average write queue length when enqueuing
system.mem_ctrls1.readRowHits                  195479                       # Number of row buffer hits during reads
system.mem_ctrls1.writeRowHits                  55399                       # Number of row buffer hits during writes
system.mem_ctrls1.readRowHitRate                47.00                       # Row buffer hit rate for reads
system.mem_ctrls1.writeRowHitRate               19.28                       # Row buffer hit rate for writes
system.mem_ctrls1.avgGap                   1694655.78                       # Average gap between requests
system.mem_ctrls1.pageHitRate                   35.67                       # Row buffer hit rate, read and write combined
system.mem_ctrls1_0.actEnergy              1623521760                       # Energy for activate commands per rank (pJ)
system.mem_ctrls1_0.preEnergy               862922280                       # Energy for precharge commands per rank (pJ)
system.mem_ctrls1_0.readEnergy             1496187000                       # Energy for read commands per rank (pJ)
system.mem_ctrls1_0.writeEnergy             752489100                       # Energy for write commands per rank (pJ)
system.mem_ctrls1_0.refreshEnergy        45118878480.000008                       # Energy for refresh commands per rank (pJ)
system.mem_ctrls1_0.actBackEnergy         26307267570                       # Energy for active background per rank (pJ)
system.mem_ctrls1_0.preBackEnergy          2156267040                       # Energy for precharge background per rank (pJ)
system.mem_ctrls1_0.actPowerDownEnergy   118543394190                       # Energy for active power-down per rank (pJ)
system.mem_ctrls1_0.prePowerDownEnergy    58948408320                       # Energy for precharge power-down per rank (pJ)
system.mem_ctrls1_0.selfRefreshEnergy    179232788505                       # Energy for self refresh per rank (pJ)
system.mem_ctrls1_0.totalEnergy          435055721835                       # Total energy per rank (pJ)
system.mem_ctrls1_0.averagePower           364.524649                       # Core power per rank (mW)
system.mem_ctrls1_0.totalIdleTime        1130079984344                       # Total Idle time Per DRAM Rank
system.mem_ctrls1_0.memoryStateTime::IDLE   3766088701                       # Time in different power states
system.mem_ctrls1_0.memoryStateTime::REF  19165902000                       # Time in different power states
system.mem_ctrls1_0.memoryStateTime::SREF 716675794887                       # Time in different power states
system.mem_ctrls1_0.memoryStateTime::PRE_PDN 153511389092                       # Time in different power states
system.mem_ctrls1_0.memoryStateTime::ACT  40404738455                       # Time in different power states
system.mem_ctrls1_0.memoryStateTime::ACT_PDN 259963884252                       # Time in different power states
system.mem_ctrls1_1.actEnergy              1606214400                       # Energy for activate commands per rank (pJ)
system.mem_ctrls1_1.preEnergy               853723200                       # Energy for precharge commands per rank (pJ)
system.mem_ctrls1_1.readEnergy             1473738840                       # Energy for read commands per rank (pJ)
system.mem_ctrls1_1.writeEnergy             747039420                       # Energy for write commands per rank (pJ)
system.mem_ctrls1_1.refreshEnergy        45732903840.000008                       # Energy for refresh commands per rank (pJ)
system.mem_ctrls1_1.actBackEnergy         26533647630                       # Energy for active background per rank (pJ)
system.mem_ctrls1_1.preBackEnergy          2180004960                       # Energy for precharge background per rank (pJ)
system.mem_ctrls1_1.actPowerDownEnergy   120427781700                       # Energy for active power-down per rank (pJ)
system.mem_ctrls1_1.prePowerDownEnergy    59901515520                       # Energy for precharge power-down per rank (pJ)
system.mem_ctrls1_1.selfRefreshEnergy    177558185445                       # Energy for self refresh per rank (pJ)
system.mem_ctrls1_1.totalEnergy          437029679595                       # Total energy per rank (pJ)
system.mem_ctrls1_1.averagePower           366.178589                       # Core power per rank (mW)
system.mem_ctrls1_1.totalIdleTime        1129584872437                       # Total Idle time Per DRAM Rank
system.mem_ctrls1_1.memoryStateTime::IDLE   3807525922                       # Time in different power states
system.mem_ctrls1_1.memoryStateTime::REF  19426146000                       # Time in different power states
system.mem_ctrls1_1.memoryStateTime::SREF 709500084325                       # Time in different power states
system.mem_ctrls1_1.memoryStateTime::PRE_PDN 155994561678                       # Time in different power states
system.mem_ctrls1_1.memoryStateTime::ACT  40662998966                       # Time in different power states
system.mem_ctrls1_1.memoryStateTime::ACT_PDN 264096480496                       # Time in different power states
system.pwrStateResidencyTicks::UNDEFINED 191244797712387                       # Cumulative time (in ticks) in various power states
system.cpu.branchPred.lookups                       4                       # Number of BP lookups
system.cpu.branchPred.condPredicted                 2                       # Number of conditional branches predicted
system.cpu.branchPred.condIncorrect                 2                       # Number of conditional branches incorrect
system.cpu.branchPred.BTBLookups                    2                       # Number of BTB lookups
system.cpu.branchPred.BTBHits                       0                       # Number of BTB hits
system.cpu.branchPred.BTBCorrect                    0                       # Number of correct BTB predictions (this stat may not work properly.
system.cpu.branchPred.BTBHitPct              0.000000                       # BTB Hit Percentage
system.cpu.branchPred.usedRAS                       0                       # Number of times the RAS was used to get a target.
system.cpu.branchPred.RASInCorrect                  0                       # Number of incorrect RAS predictions.
system.cpu.branchPred.indirectLookups               0                       # Number of indirect predictor lookups.
system.cpu.branchPred.indirectHits                  0                       # Number of indirect target hits.
system.cpu.branchPred.indirectMisses                0                       # Number of indirect misses.
system.cpu.branchPredindirectMispredicted            0                       # Number of mispredicted indirect branches.
system.cpu_voltage_domain.voltage                   1                       # Voltage in Volts
system.cpu_clk_domain.clock                       333                       # Clock period in ticks
system.cpu.dtb.fetch_hits                           0                       # ITB hits
system.cpu.dtb.fetch_misses                         0                       # ITB misses
system.cpu.dtb.fetch_acv                            0                       # ITB acv
system.cpu.dtb.fetch_accesses                       0                       # ITB accesses
system.cpu.dtb.read_hits                            6                       # DTB read hits
system.cpu.dtb.read_misses                          0                       # DTB read misses
system.cpu.dtb.read_acv                             0                       # DTB read access violations
system.cpu.dtb.read_accesses                        6                       # DTB read accesses
system.cpu.dtb.write_hits                           1                       # DTB write hits
system.cpu.dtb.write_misses                         0                       # DTB write misses
system.cpu.dtb.write_acv                            0                       # DTB write access violations
system.cpu.dtb.write_accesses                       1                       # DTB write accesses
system.cpu.dtb.data_hits                            7                       # DTB hits
system.cpu.dtb.data_misses                          0                       # DTB misses
system.cpu.dtb.data_acv                             0                       # DTB access violations
system.cpu.dtb.data_accesses                        7                       # DTB accesses
system.cpu.itb.fetch_hits                           7                       # ITB hits
system.cpu.itb.fetch_misses                         0                       # ITB misses
system.cpu.itb.fetch_acv                            0                       # ITB acv
system.cpu.itb.fetch_accesses                       7                       # ITB accesses
system.cpu.itb.read_hits                            0                       # DTB read hits
system.cpu.itb.read_misses                          0                       # DTB read misses
system.cpu.itb.read_acv                             0                       # DTB read access violations
system.cpu.itb.read_accesses                        0                       # DTB read accesses
system.cpu.itb.write_hits                           0                       # DTB write hits
system.cpu.itb.write_misses                         0                       # DTB write misses
system.cpu.itb.write_acv                            0                       # DTB write access violations
system.cpu.itb.write_accesses                       0                       # DTB write accesses
system.cpu.itb.data_hits                            0                       # DTB hits
system.cpu.itb.data_misses                          0                       # DTB misses
system.cpu.itb.data_acv                             0                       # DTB access violations
system.cpu.itb.data_accesses                        0                       # DTB accesses
system.cpu.workload.num_syscalls                    0                       # Number of system calls
system.cpu.pwrStateResidencyTicks::ON    1193487797387                       # Cumulative time (in ticks) in various power states
system.cpu.numCycles                              851                       # number of cpu cycles simulated
system.cpu.numWorkItemsStarted                      0                       # number of work items this cpu started
system.cpu.numWorkItemsCompleted                    0                       # number of work items this cpu completed
system.cpu.fetch.icacheStallCycles                 50                       # Number of cycles fetch is stalled on an Icache miss
system.cpu.fetch.Insts                             19                       # Number of instructions fetch has processed
system.cpu.fetch.Branches                           4                       # Number of branches that fetch encountered
system.cpu.fetch.Cycles                             4                       # Number of cycles fetch has run and was not squashing or blocked
system.cpu.fetch.SquashCycles                       7                       # Number of cycles fetch has spent squashing
system.cpu.fetch.PendingDrainCycles                 6                       # Number of cycles fetch has spent waiting on pipes to drain
system.cpu.fetch.CacheLines                         7                       # Number of cache lines fetched
system.cpu.fetch.IcacheSquashes                     4                       # Number of outstanding Icache misses that were squashed
system.cpu.fetch.rateDist::samples                 63                       # Number of instructions fetched each cycle (Total)
system.cpu.fetch.rateDist::mean              0.301587                       # Number of instructions fetched each cycle (Total)
system.cpu.fetch.rateDist::stdev             1.432738                       # Number of instructions fetched each cycle (Total)
system.cpu.fetch.rateDist::underflows               0      0.00%      0.00% # Number of instructions fetched each cycle (Total)
system.cpu.fetch.rateDist::0                       59     93.65%     93.65% # Number of instructions fetched each cycle (Total)
system.cpu.fetch.rateDist::1                        1      1.59%     95.24% # Number of instructions fetched each cycle (Total)
[...]
system.switch_cpus_1.iq.int_inst_queue_writes    557512705                       # Number of integer instruction queue writes
system.switch_cpus_1.iq.int_inst_queue_wakeup_accesses    315071633                       # Number of integer instruction queue wakeup accesses
system.switch_cpus_1.iq.fp_inst_queue_reads          222                       # Number of floating instruction queue reads
system.switch_cpus_1.iq.fp_inst_queue_writes          177                       # Number of floating instruction queue writes
system.switch_cpus_1.iq.fp_inst_queue_wakeup_accesses          101                       # Number of floating instruction queue wakeup accesses
system.switch_cpus_1.iq.int_alu_accesses    339933549                       # Number of integer alu accesses
system.switch_cpus_1.iq.fp_alu_accesses           111                       # Number of floating point alu accesses
system.switch_cpus_1.iew.lsq.thread0.forwLoads      3694414                       # Number of loads that had data forwarded from stores
system.switch_cpus_1.iew.lsq.thread0.invAddrLoads            0                       # Number of loads ignored due to an invalid address
system.switch_cpus_1.iew.lsq.thread0.squashedLoads     42749489                       # Number of loads squashed
system.switch_cpus_1.iew.lsq.thread0.ignoredResponses        24497                       # Number of memory responses ignored because the instruction is squashed
system.switch_cpus_1.iew.lsq.thread0.memOrderViolation        11281                       # Number of memory ordering violations
system.switch_cpus_1.iew.lsq.thread0.squashedStores     13250253                       # Number of stores squashed
system.switch_cpus_1.iew.lsq.thread0.invAddrSwpfs            0                       # Number of software prefetches ignored due to an invalid address
system.switch_cpus_1.iew.lsq.thread0.blockedLoads            0                       # Number of blocked loads due to partial load-store forwarding
system.switch_cpus_1.iew.lsq.thread0.rescheduledLoads            0                       # Number of loads that were rescheduled
system.switch_cpus_1.iew.lsq.thread0.cacheBlocked      6330656                       # Number of times an access to memory failed due to the cache being blocked
system.switch_cpus_1.iew.iewIdleCycles              0                       # Number of cycles IEW is idle
system.switch_cpus_1.iew.iewSquashCycles      3265769                       # Number of cycles IEW is squashing
system.switch_cpus_1.iew.iewBlockCycles      35575436                       # Number of cycles IEW is blocking
system.switch_cpus_1.iew.iewUnblockCycles      9571727                       # Number of cycles IEW is unblocking
system.switch_cpus_1.iew.iewDispatchedInsts    379444973                       # Number of instructions dispatched to IQ
system.switch_cpus_1.iew.iewDispSquashedInsts       955608                       # Number of squashed instructions skipped by dispatch
system.switch_cpus_1.iew.iewDispLoadInsts     92182237                       # Number of dispatched load instructions
system.switch_cpus_1.iew.iewDispStoreInsts     27315741                       # Number of dispatched store instructions
system.switch_cpus_1.iew.iewDispNonSpecInsts            0                       # Number of dispatched non-speculative instructions
system.switch_cpus_1.iew.iewIQFullEvents       187396                       # Number of times the IQ has become full, causing a stall
system.switch_cpus_1.iew.iewLSQFullEvents      9310687                       # Number of times the LSQ has become full, causing a stall
system.switch_cpus_1.iew.memOrderViolationEvents        11281                       # Number of memory order violations
system.switch_cpus_1.iew.predictedTakenIncorrect      1672428                       # Number of branches that were predicted taken incorrectly
system.switch_cpus_1.iew.predictedNotTakenIncorrect      1792578                       # Number of branches that were predicted not taken incorrectly
system.switch_cpus_1.iew.branchMispredicts      3465006                       # Number of branch mispredicts detected at execute
system.switch_cpus_1.iew.iewExecutedInsts    329237878                       # Number of executed instructions
system.switch_cpus_1.iew.iewExecLoadInsts     86638898                       # Number of load instructions executed
system.switch_cpus_1.iew.iewExecSquashedInsts      6257377                       # Number of squashed instructions skipped in execute
system.switch_cpus_1.iew.exec_swp                   0                       # number of swp insts executed
system.switch_cpus_1.iew.exec_nop              693915                       # number of nop insts executed
system.switch_cpus_1.iew.exec_refs          107354901                       # number of memory reference insts executed
system.switch_cpus_1.iew.exec_branches       38303661                       # Number of branches executed
system.switch_cpus_1.iew.exec_stores         20716003                       # Number of stores executed
system.switch_cpus_1.iew.exec_rate           1.693348                       # Inst execution rate
system.switch_cpus_1.iew.wb_sent            318645727                       # cumulative count of insts sent to commit
system.switch_cpus_1.iew.wb_count           315071734                       # cumulative count of insts written-back
system.switch_cpus_1.iew.wb_producers       205126421                       # num instructions producing a value
system.switch_cpus_1.iew.wb_consumers       269623494                       # num instructions consuming a value
system.switch_cpus_1.iew.wb_rate             1.620488                       # insts written-back per cycle
system.switch_cpus_1.iew.wb_fanout           0.760788                       # average fanout of values written-back
system.switch_cpus_1.commit.commitSquashedInsts    169543822                       # The number of squashed insts skipped by commit
system.switch_cpus_1.commit.branchMispredicts      2821853                       # The number of times a branch was mispredicted
system.switch_cpus_1.commit.committed_per_cycle::samples    170927723                       # Number of insts commited each cycle
system.switch_cpus_1.commit.committed_per_cycle::mean     1.173238                       # Number of insts commited each cycle
system.switch_cpus_1.commit.committed_per_cycle::stdev     2.354756                       # Number of insts commited each cycle
system.switch_cpus_1.commit.committed_per_cycle::underflows            0      0.00%      0.00% # Number of insts commited each cycle
system.switch_cpus_1.commit.committed_per_cycle::0    116880143     68.38%     68.38% # Number of insts commited each cycle
system.switch_cpus_1.commit.committed_per_cycle::1     17220326     10.07%     78.45% # Number of insts commited each cycle
system.switch_cpus_1.commit.committed_per_cycle::2     11103475      6.50%     84.95% # Number of insts commited each cycle
system.switch_cpus_1.commit.committed_per_cycle::3      5018761      2.94%     87.89% # Number of insts commited each cycle
system.switch_cpus_1.commit.committed_per_cycle::4      2547915      1.49%     89.38% # Number of insts commited each cycle
system.switch_cpus_1.commit.committed_per_cycle::5      1931932      1.13%     90.51% # Number of insts commited each cycle
system.switch_cpus_1.commit.committed_per_cycle::6      1366918      0.80%     91.31% # Number of insts commited each cycle
system.switch_cpus_1.commit.committed_per_cycle::7       863479      0.51%     91.81% # Number of insts commited each cycle
system.switch_cpus_1.commit.committed_per_cycle::8     13994774      8.19%    100.00% # Number of insts commited each cycle
system.switch_cpus_1.commit.committed_per_cycle::overflows            0      0.00%    100.00% # Number of insts commited each cycle
system.switch_cpus_1.commit.committed_per_cycle::min_value            0                       # Number of insts commited each cycle
system.switch_cpus_1.commit.committed_per_cycle::max_value            8                       # Number of insts commited each cycle
system.switch_cpus_1.commit.committed_per_cycle::total    170927723                       # Number of insts commited each cycle
system.switch_cpus_1.commit.committedInsts    200538932                       # Number of instructions committed
system.switch_cpus_1.commit.committedOps    200538932                       # Number of ops (including micro ops) committed
system.switch_cpus_1.commit.swp_count               0                       # Number of s/w prefetches committed
system.switch_cpus_1.commit.refs             63498195                       # Number of memory references committed
system.switch_cpus_1.commit.loads            49432720                       # Number of loads committed
system.switch_cpus_1.commit.membars                 0                       # Number of memory barriers committed
system.switch_cpus_1.commit.branches         24329166                       # Number of branches committed
system.switch_cpus_1.commit.fp_insts               91                       # Number of committed floating point instructions.
system.switch_cpus_1.commit.int_insts       197997126                       # Number of committed integer instructions.
system.switch_cpus_1.commit.function_calls       749984                       # Number of function calls committed.
system.switch_cpus_1.commit.op_class_0::No_OpClass       538941      0.27%      0.27% # Class of committed instruction
system.switch_cpus_1.commit.op_class_0::IntAlu    136501742     68.07%     68.34% # Class of committed instruction
system.switch_cpus_1.commit.op_class_0::IntMult            0      0.00%     68.34% # Class of committed instruction
system.switch_cpus_1.commit.op_class_0::IntDiv            0      0.00%     68.34% # Class of committed instruction
system.switch_cpus_1.commit.op_class_0::FloatAdd           30      0.00%     68.34% # Class of committed instruction
system.switch_cpus_1.commit.op_class_0::FloatCmp            0      0.00%     68.34% # Class of committed instruction
system.switch_cpus_1.commit.op_class_0::FloatCvt           18      0.00%     68.34% # Class of committed instruction
system.switch_cpus_1.commit.op_class_0::FloatMult            0      0.00%     68.34% # Class of committed instruction
system.switch_cpus_1.commit.op_class_0::FloatMultAcc            0      0.00%     68.34% # Class of committed instruction
system.switch_cpus_1.commit.op_class_0::FloatDiv            6      0.00%     68.34% # Class of committed instruction
system.switch_cpus_1.commit.op_class_0::FloatMisc            0      0.00%     68.34% # Class of committed instruction
system.switch_cpus_1.commit.op_class_0::FloatSqrt            0      0.00%     68.34% # Class of committed instruction
system.switch_cpus_1.commit.op_class_0::SimdAdd            0      0.00%     68.34% # Class of committed instruction
system.switch_cpus_1.commit.op_class_0::SimdAddAcc            0      0.00%     68.34% # Class of committed instruction
system.switch_cpus_1.commit.op_class_0::SimdAlu            0      0.00%     68.34% # Class of committed instruction
system.switch_cpus_1.commit.op_class_0::SimdCmp            0      0.00%     68.34% # Class of committed instruction
system.switch_cpus_1.commit.op_class_0::SimdCvt            0      0.00%     68.34% # Class of committed instruction
system.switch_cpus_1.commit.op_class_0::SimdMisc            0      0.00%     68.34% # Class of committed instruction
system.switch_cpus_1.commit.op_class_0::SimdMult            0      0.00%     68.34% # Class of committed instruction
system.switch_cpus_1.commit.op_class_0::SimdMultAcc            0      0.00%     68.34% # Class of committed instruction
system.switch_cpus_1.commit.op_class_0::SimdShift            0      0.00%     68.34% # Class of committed instruction
system.switch_cpus_1.commit.op_class_0::SimdShiftAcc            0      0.00%     68.34% # Class of committed instruction
system.switch_cpus_1.commit.op_class_0::SimdSqrt            0      0.00%     68.34% # Class of committed instruction
system.switch_cpus_1.commit.op_class_0::SimdFloatAdd            0      0.00%     68.34% # Class of committed instruction
system.switch_cpus_1.commit.op_class_0::SimdFloatAlu            0      0.00%     68.34% # Class of committed instruction
system.switch_cpus_1.commit.op_class_0::SimdFloatCmp            0      0.00%     68.34% # Class of committed instruction
system.switch_cpus_1.commit.op_class_0::SimdFloatCvt            0      0.00%     68.34% # Class of committed instruction
system.switch_cpus_1.commit.op_class_0::SimdFloatDiv            0      0.00%     68.34% # Class of committed instruction
system.switch_cpus_1.commit.op_class_0::SimdFloatMisc            0      0.00%     68.34% # Class of committed instruction
system.switch_cpus_1.commit.op_class_0::SimdFloatMult            0      0.00%     68.34% # Class of committed instruction
system.switch_cpus_1.commit.op_class_0::SimdFloatMultAcc            0      0.00%     68.34% # Class of committed instruction
system.switch_cpus_1.commit.op_class_0::SimdFloatSqrt            0      0.00%     68.34% # Class of committed instruction
system.switch_cpus_1.commit.op_class_0::MemRead     49432701     24.65%     92.99% # Class of committed instruction
system.switch_cpus_1.commit.op_class_0::MemWrite     14065457      7.01%    100.00% # Class of committed instruction
system.switch_cpus_1.commit.op_class_0::FloatMemRead           19      0.00%    100.00% # Class of committed instruction
system.switch_cpus_1.commit.op_class_0::FloatMemWrite           18      0.00%    100.00% # Class of committed instruction
system.switch_cpus_1.commit.op_class_0::IprAccess            0      0.00%    100.00% # Class of committed instruction
system.switch_cpus_1.commit.op_class_0::InstPrefetch            0      0.00%    100.00% # Class of committed instruction
system.switch_cpus_1.commit.op_class_0::total    200538932                       # Class of committed instruction
system.switch_cpus_1.commit.bw_lim_events     13994774                       # number cycles where commit BW limit reached
system.switch_cpus_1.rob.rob_reads          521360079                       # The number of ROB reads
system.switch_cpus_1.rob.rob_writes         763690698                       # The number of ROB writes
system.switch_cpus_1.timesIdled                   140                       # Number of times that the entire CPU went into an idle state and unscheduled itself
system.switch_cpus_1.idleCycles                  9720                       # Total number of cycles that the CPU has spent unscheduled due to idling
system.switch_cpus_1.committedInsts         200000003                       # Number of Instructions Simulated
system.switch_cpus_1.committedOps           200000003                       # Number of Ops (including micro ops) Simulated
system.switch_cpus_1.cpi                     0.972151                       # CPI: Cycles Per Instruction
system.switch_cpus_1.cpi_total               0.972151                       # CPI: Total CPI of All Threads
system.switch_cpus_1.ipc                     1.028647                       # IPC: Instructions Per Cycle
system.switch_cpus_1.ipc_total               1.028647                       # IPC: Total IPC of All Threads
system.switch_cpus_1.int_regfile_reads      447977026                       # number of integer regfile reads
system.switch_cpus_1.int_regfile_writes     259603312                       # number of integer regfile writes
system.switch_cpus_1.fp_regfile_reads              63                       # number of floating regfile reads
system.switch_cpus_1.fp_regfile_writes            103                       # number of floating regfile writes
system.switch_cpus_1.misc_regfile_reads            12                       # number of misc regfile reads
system.switch_cpus_1.misc_regfile_writes            6                       # number of misc regfile writes
system.tol3bus.snoop_filter.tot_requests     15148864                       # Total number of requests made to the snoop filter.
system.tol3bus.snoop_filter.hit_single_requests      7572299                       # Number of requests hitting in the snoop filter with a single holder of the requested data.
system.tol3bus.snoop_filter.hit_multi_requests            0                       # Number of requests hitting in the snoop filter with multiple (>1) holders of the requested data.
system.tol3bus.snoop_filter.tot_snoops           1437                       # Total number of snoops made to the snoop filter.
system.tol3bus.snoop_filter.hit_single_snoops         1437                       # Number of snoops hitting in the snoop filter with a single holder of the requested data.
system.tol3bus.snoop_filter.hit_multi_snoops            0                       # Number of snoops hitting in the snoop filter with multiple (>1) holders of the requested data.
system.tol3bus.pwrStateResidencyTicks::UNDEFINED 191244797712387                       # Cumulative time (in ticks) in various power states
system.tol3bus.trans_dist::ReadResp           5401157                       # Transaction distribution
system.tol3bus.trans_dist::WritebackDirty      4731622                       # Transaction distribution
system.tol3bus.trans_dist::CleanEvict         3608923                       # Transaction distribution
system.tol3bus.trans_dist::UpgradeReq               5                       # Transaction distribution
system.tol3bus.trans_dist::UpgradeResp              5                       # Transaction distribution
system.tol3bus.trans_dist::ReadExReq          2175408                       # Transaction distribution
system.tol3bus.trans_dist::ReadExResp         2175408                       # Transaction distribution
system.tol3bus.trans_dist::ReadSharedReq      5401157                       # Transaction distribution
system.tol3bus.pkt_count_system.cpu.l2.mem_side::system.l3.cpu_side     22725434                       # Packet count per connected master and slave (bytes)
system.tol3bus.pkt_size_system.cpu.l2.mem_side::system.l3.cpu_side    750980224                       # Cumulative packet size per connected master and slave (bytes)
system.tol3bus.snoops                          768251                       # Total snoops (count)
system.tol3bus.snoopTraffic                  36743744                       # Total snoop traffic (bytes)
system.tol3bus.snoop_fanout::samples          8344821                       # Request fanout histogram
system.tol3bus.snoop_fanout::mean            0.000172                       # Request fanout histogram
system.tol3bus.snoop_fanout::stdev           0.013121                       # Request fanout histogram
system.tol3bus.snoop_fanout::underflows             0      0.00%      0.00% # Request fanout histogram
system.tol3bus.snoop_fanout::0                8343384     99.98%     99.98% # Request fanout histogram
system.tol3bus.snoop_fanout::1                   1437      0.02%    100.00% # Request fanout histogram
system.tol3bus.snoop_fanout::overflows              0      0.00%    100.00% # Request fanout histogram
system.tol3bus.snoop_fanout::min_value              0                       # Request fanout histogram
system.tol3bus.snoop_fanout::max_value              1                       # Request fanout histogram
system.tol3bus.snoop_fanout::total            8344821                       # Request fanout histogram
system.tol3bus.reqLayer0.occupancy         6429019545                       # Layer occupancy (ticks)
system.tol3bus.reqLayer0.utilization              0.5                       # Layer utilization (%)
system.tol3bus.respLayer0.occupancy        5045993955                       # Layer occupancy (ticks)
system.tol3bus.respLayer0.utilization             0.4                       # Layer utilization (%)

---------- End Simulation Statistics   ----------
