
---------- Begin Simulation Statistics ----------
sim_seconds                                  2.919768                       # Number of seconds simulated
sim_ticks                                2919767593050                       # Number of ticks simulated
final_tick                               129872764117782                       # Number of ticks from beginning of simulation (restored from checkpoints and never reset)
sim_freq                                 1000000000000                       # Frequency of simulated ticks
host_inst_rate                                 163043                       # Simulator instruction rate (inst/s)
host_op_rate                                   163043                       # Simulator op (including micro ops) rate (op/s)
host_tick_rate                              396705356                       # Simulator tick rate (ticks/s)
host_mem_usage                                2437104                       # Number of bytes of host memory used
host_seconds                                  7360.04                       # Real time elapsed on the host
sim_insts                                  1200000003                       # Number of instructions simulated
sim_ops                                    1200000003                       # Number of ops (including micro ops) simulated
system.voltage_domain.voltage                       1                       # Voltage in Volts
system.clk_domain.clock                          1000                       # Clock period in ticks
system.mem_ctrls0.pwrStateResidencyTicks::UNDEFINED 129872764117782                       # Cumulative time (in ticks) in various power states
system.mem_ctrls0.bytes_read::cpu.inst            128                       # Number of bytes read from this memory
system.mem_ctrls0.bytes_read::switch_cpus.inst        64320                       # Number of bytes read from this memory
system.mem_ctrls0.bytes_read::switch_cpus.data    389485888                       # Number of bytes read from this memory
system.mem_ctrls0.bytes_read::switch_cpus_1.inst        23616                       # Number of bytes read from this memory
system.mem_ctrls0.bytes_read::switch_cpus_1.data     88104064                       # Number of bytes read from this memory
system.mem_ctrls0.bytes_read::total         477678016                       # Number of bytes read from this memory
system.mem_ctrls0.bytes_inst_read::cpu.inst          128                       # Number of instructions bytes read from this memory
system.mem_ctrls0.bytes_inst_read::switch_cpus.inst        64320                       # Number of instructions bytes read from this memory
system.mem_ctrls0.bytes_inst_read::switch_cpus_1.inst        23616                       # Number of instructions bytes read from this memory
system.mem_ctrls0.bytes_inst_read::total        88064                       # Number of instructions bytes read from this memory
system.mem_ctrls0.bytes_written::writebacks    201045248                       # Number of bytes written to this memory
system.mem_ctrls0.bytes_written::total      201045248                       # Number of bytes written to this memory
system.mem_ctrls0.num_reads::cpu.inst               2                       # Number of read requests responded to by this memory
system.mem_ctrls0.num_reads::switch_cpus.inst         1005                       # Number of read requests responded to by this memory
system.mem_ctrls0.num_reads::switch_cpus.data      6085717                       # Number of read requests responded to by this memory
system.mem_ctrls0.num_reads::switch_cpus_1.inst          369                       # Number of read requests responded to by this memory
system.mem_ctrls0.num_reads::switch_cpus_1.data      1376626                       # Number of read requests responded to by this memory
system.mem_ctrls0.num_reads::total            7463719                       # Number of read requests responded to by this memory
system.mem_ctrls0.num_writes::writebacks      3141332                       # Number of write requests responded to by this memory
system.mem_ctrls0.num_writes::total           3141332                       # Number of write requests responded to by this memory
system.mem_ctrls0.bw_read::cpu.inst                44                       # Total read bandwidth from this memory (bytes/s)
system.mem_ctrls0.bw_read::switch_cpus.inst        22029                       # Total read bandwidth from this memory (bytes/s)
system.mem_ctrls0.bw_read::switch_cpus.data    133396195                       # Total read bandwidth from this memory (bytes/s)
system.mem_ctrls0.bw_read::switch_cpus_1.inst         8088                       # Total read bandwidth from this memory (bytes/s)
system.mem_ctrls0.bw_read::switch_cpus_1.data     30175026                       # Total read bandwidth from this memory (bytes/s)
system.mem_ctrls0.bw_read::total            163601383                       # Total read bandwidth from this memory (bytes/s)
system.mem_ctrls0.bw_inst_read::cpu.inst           44                       # Instruction read bandwidth from this memory (bytes/s)
system.mem_ctrls0.bw_inst_read::switch_cpus.inst        22029                       # Instruction read bandwidth from this memory (bytes/s)
system.mem_ctrls0.bw_inst_read::switch_cpus_1.inst         8088                       # Instruction read bandwidth from this memory (bytes/s)
system.mem_ctrls0.bw_inst_read::total           30161                       # Instruction read bandwidth from this memory (bytes/s)
system.mem_ctrls0.bw_write::writebacks       68856593                       # Write bandwidth from this memory (bytes/s)
system.mem_ctrls0.bw_write::total            68856593                       # Write bandwidth from this memory (bytes/s)
system.mem_ctrls0.bw_total::writebacks       68856593                       # Total bandwidth to/from this memory (bytes/s)
system.mem_ctrls0.bw_total::cpu.inst               44                       # Total bandwidth to/from this memory (bytes/s)
system.mem_ctrls0.bw_total::switch_cpus.inst        22029                       # Total bandwidth to/from this memory (bytes/s)
system.mem_ctrls0.bw_total::switch_cpus.data    133396195                       # Total bandwidth to/from this memory (bytes/s)
system.mem_ctrls0.bw_total::switch_cpus_1.inst         8088                       # Total bandwidth to/from this memory (bytes/s)
system.mem_ctrls0.bw_total::switch_cpus_1.data     30175026                       # Total bandwidth to/from this memory (bytes/s)
system.mem_ctrls0.bw_total::total           232457976                       # Total bandwidth to/from this memory (bytes/s)
system.mem_ctrls0.readReqs                    7463719                       # Number of read requests accepted
system.mem_ctrls0.writeReqs                   3141332                       # Number of write requests accepted
system.mem_ctrls0.readBursts                  7463719                       # Number of DRAM read bursts, including those serviced by the write queue
system.mem_ctrls0.writeBursts                 3141332                       # Number of DRAM write bursts, including those merged in the write queue
system.mem_ctrls0.bytesReadDRAM             477385856                       # Total number of bytes read from DRAM
system.mem_ctrls0.bytesReadWrQ                 292160                       # Total number of bytes read from write queue
system.mem_ctrls0.bytesWritten              201043264                       # Total number of bytes written to DRAM
system.mem_ctrls0.bytesReadSys              477678016                       # Total read bytes from the system interface side
system.mem_ctrls0.bytesWrittenSys           201045248                       # Total written bytes from the system interface side
system.mem_ctrls0.servicedByWrQ                  4565                       # Number of DRAM read bursts serviced by the write queue
system.mem_ctrls0.mergedWrBursts                    0                       # Number of DRAM write bursts merged with an existing one
system.mem_ctrls0.neitherReadNorWriteReqs            0                       # Number of requests that are neither read nor write
system.mem_ctrls0.perBankRdBursts::0           460500                       # Per bank write bursts
system.mem_ctrls0.perBankRdBursts::1           472031                       # Per bank write bursts
system.mem_ctrls0.perBankRdBursts::2           470947                       # Per bank write bursts
system.mem_ctrls0.perBankRdBursts::3           451942                       # Per bank write bursts
system.mem_ctrls0.perBankRdBursts::4           450362                       # Per bank write bursts
system.mem_ctrls0.perBankRdBursts::5           472732                       # Per bank write bursts
system.mem_ctrls0.perBankRdBursts::6           481535                       # Per bank write bursts
system.mem_ctrls0.perBankRdBursts::7           480025                       # Per bank write bursts
system.mem_ctrls0.perBankRdBursts::8           490409                       # Per bank write bursts
system.mem_ctrls0.perBankRdBursts::9           468887                       # Per bank write bursts
system.mem_ctrls0.perBankRdBursts::10          454028                       # Per bank write bursts
system.mem_ctrls0.perBankRdBursts::11          451335                       # Per bank write bursts
system.mem_ctrls0.perBankRdBursts::12          448691                       # Per bank write bursts
system.mem_ctrls0.perBankRdBursts::13          469744                       # Per bank write bursts
system.mem_ctrls0.perBankRdBursts::14          471676                       # Per bank write bursts
system.mem_ctrls0.perBankRdBursts::15          464310                       # Per bank write bursts
system.mem_ctrls0.perBankWrBursts::0           195190                       # Per bank write bursts
system.mem_ctrls0.perBankWrBursts::1           195523                       # Per bank write bursts
system.mem_ctrls0.perBankWrBursts::2           199042                       # Per bank write bursts
system.mem_ctrls0.perBankWrBursts::3           186482                       # Per bank write bursts
system.mem_ctrls0.perBankWrBursts::4           188776                       # Per bank write bursts
system.mem_ctrls0.perBankWrBursts::5           199013                       # Per bank write bursts
system.mem_ctrls0.perBankWrBursts::6           206441                       # Per bank write bursts
system.mem_ctrls0.perBankWrBursts::7           204946                       # Per bank write bursts
system.mem_ctrls0.perBankWrBursts::8           206851                       # Per bank write bursts
system.mem_ctrls0.perBankWrBursts::9           195019                       # Per bank write bursts
system.mem_ctrls0.perBankWrBursts::10          193147                       # Per bank write bursts
system.mem_ctrls0.perBankWrBursts::11          194509                       # Per bank write bursts
system.mem_ctrls0.perBankWrBursts::12          186196                       # Per bank write bursts
system.mem_ctrls0.perBankWrBursts::13          196005                       # Per bank write bursts
system.mem_ctrls0.perBankWrBursts::14          200461                       # Per bank write bursts
system.mem_ctrls0.perBankWrBursts::15          193700                       # Per bank write bursts
system.mem_ctrls0.numRdRetry                        0                       # Number of times read queue was full causing retry
system.mem_ctrls0.numWrRetry                        0                       # Number of times write queue was full causing retry
system.mem_ctrls0.totGap                 2919767453856                       # Total gap between requests
system.mem_ctrls0.readPktSize::0                    0                       # Read request sizes (log2)
system.mem_ctrls0.readPktSize::1                    0                       # Read request sizes (log2)
system.mem_ctrls0.readPktSize::2                    0                       # Read request sizes (log2)
system.mem_ctrls0.readPktSize::3                    0                       # Read request sizes (log2)
system.mem_ctrls0.readPktSize::4                    0                       # Read request sizes (log2)
system.mem_ctrls0.readPktSize::5                    0                       # Read request sizes (log2)
system.mem_ctrls0.readPktSize::6              7463719                       # Read request sizes (log2)
system.mem_ctrls0.writePktSize::0                   0                       # Write request sizes (log2)
system.mem_ctrls0.writePktSize::1                   0                       # Write request sizes (log2)
system.mem_ctrls0.writePktSize::2                   0                       # Write request sizes (log2)
system.mem_ctrls0.writePktSize::3                   0                       # Write request sizes (log2)
system.mem_ctrls0.writePktSize::4                   0                       # Write request sizes (log2)
system.mem_ctrls0.writePktSize::5                   0                       # Write request sizes (log2)
system.mem_ctrls0.writePktSize::6             3141332                       # Write request sizes (log2)
system.mem_ctrls0.rdQLenPdf::0                7173299                       # What read queue length does an incoming req see
system.mem_ctrls0.rdQLenPdf::1                 254100                       # What read queue length does an incoming req see
system.mem_ctrls0.rdQLenPdf::2                  29873                       # What read queue length does an incoming req see
system.mem_ctrls0.rdQLenPdf::3                   1881                       # What read queue length does an incoming req see
system.mem_ctrls0.rdQLenPdf::4                      1                       # What read queue length does an incoming req see
system.mem_ctrls0.rdQLenPdf::5                      0                       # What read queue length does an incoming req see
system.mem_ctrls0.rdQLenPdf::6                      0                       # What read queue length does an incoming req see
system.mem_ctrls0.rdQLenPdf::7                      0                       # What read queue length does an incoming req see
system.mem_ctrls0.rdQLenPdf::8                      0                       # What read queue length does an incoming req see
system.mem_ctrls0.rdQLenPdf::9                      0                       # What read queue length does an incoming req see
system.mem_ctrls0.rdQLenPdf::10                     0                       # What read queue length does an incoming req see
system.mem_ctrls0.rdQLenPdf::11                     0                       # What read queue length does an incoming req see
system.mem_ctrls0.rdQLenPdf::12                     0                       # What read queue length does an incoming req see
system.mem_ctrls0.rdQLenPdf::13                     0                       # What read queue length does an incoming req see
system.mem_ctrls0.rdQLenPdf::14                     0                       # What read queue length does an incoming req see
system.mem_ctrls0.rdQLenPdf::15                     0                       # What read queue length does an incoming req see
system.mem_ctrls0.rdQLenPdf::16                     0                       # What read queue length does an incoming req see
system.mem_ctrls0.rdQLenPdf::17                     0                       # What read queue length does an incoming req see
system.mem_ctrls0.rdQLenPdf::18                     0                       # What read queue length does an incoming req see
system.mem_ctrls0.rdQLenPdf::19                     0                       # What read queue length does an incoming req see
system.mem_ctrls0.rdQLenPdf::20                     0                       # What read queue length does an incoming req see
system.mem_ctrls0.rdQLenPdf::21                     0                       # What read queue length does an incoming req see
system.mem_ctrls0.rdQLenPdf::22                     0                       # What read queue length does an incoming req see
system.mem_ctrls0.rdQLenPdf::23                     0                       # What read queue length does an incoming req see
system.mem_ctrls0.rdQLenPdf::24                     0                       # What read queue length does an incoming req see
system.mem_ctrls0.rdQLenPdf::25                     0                       # What read queue length does an incoming req see
system.mem_ctrls0.rdQLenPdf::26                     0                       # What read queue length does an incoming req see
system.mem_ctrls0.rdQLenPdf::27                     0                       # What read queue length does an incoming req see
system.mem_ctrls0.rdQLenPdf::28                     0                       # What read queue length does an incoming req see
system.mem_ctrls0.rdQLenPdf::29                     0                       # What read queue length does an incoming req see
system.mem_ctrls0.rdQLenPdf::30                     0                       # What read queue length does an incoming req see
system.mem_ctrls0.rdQLenPdf::31                     0                       # What read queue length does an incoming req see
system.mem_ctrls0.wrQLenPdf::0                      2                       # What write queue length does an incoming req see
system.mem_ctrls0.wrQLenPdf::1                      2                       # What write queue length does an incoming req see
system.mem_ctrls0.wrQLenPdf::2                      2                       # What write queue length does an incoming req see
system.mem_ctrls0.wrQLenPdf::3                      2                       # What write queue length does an incoming req see
system.mem_ctrls0.wrQLenPdf::4                      2                       # What write queue length does an incoming req see
system.mem_ctrls0.wrQLenPdf::5                      2                       # What write queue length does an incoming req see
system.mem_ctrls0.wrQLenPdf::6                      2                       # What write queue length does an incoming req see
system.mem_ctrls0.wrQLenPdf::7                      2                       # What write queue length does an incoming req see
system.mem_ctrls0.wrQLenPdf::8                      2                       # What write queue length does an incoming req see
system.mem_ctrls0.wrQLenPdf::9                      2                       # What write queue length does an incoming req see
system.mem_ctrls0.wrQLenPdf::10                     2                       # What write queue length does an incoming req see
system.mem_ctrls0.wrQLenPdf::11                     2                       # What write queue length does an incoming req see
system.mem_ctrls0.wrQLenPdf::12                     2                       # What write queue length does an incoming req see
system.mem_ctrls0.wrQLenPdf::13                     2                       # What write queue length does an incoming req see
system.mem_ctrls0.wrQLenPdf::14                     2                       # What write queue length does an incoming req see
system.mem_ctrls0.wrQLenPdf::15                117569                       # What write queue length does an incoming req see
system.mem_ctrls0.wrQLenPdf::16                122643                       # What write queue length does an incoming req see
system.mem_ctrls0.wrQLenPdf::17                178033                       # What write queue length does an incoming req see
system.mem_ctrls0.wrQLenPdf::18                181138                       # What write queue length does an incoming req see
system.mem_ctrls0.wrQLenPdf::19                181340                       # What write queue length does an incoming req see
system.mem_ctrls0.wrQLenPdf::20                181376                       # What write queue length does an incoming req see
system.mem_ctrls0.wrQLenPdf::21                181298                       # What write queue length does an incoming req see
system.mem_ctrls0.wrQLenPdf::22                181265                       # What write queue length does an incoming req see
system.mem_ctrls0.wrQLenPdf::23                181416                       # What write queue length does an incoming req see
system.mem_ctrls0.wrQLenPdf::24                181295                       # What write queue length does an incoming req see
system.mem_ctrls0.wrQLenPdf::25                182966                       # What write queue length does an incoming req see
system.mem_ctrls0.wrQLenPdf::26                182349                       # What write queue length does an incoming req see
system.mem_ctrls0.wrQLenPdf::27                181327                       # What write queue length does an incoming req see
system.mem_ctrls0.wrQLenPdf::28                181305                       # What write queue length does an incoming req see
system.mem_ctrls0.wrQLenPdf::29                181542                       # What write queue length does an incoming req see
system.mem_ctrls0.wrQLenPdf::30                182471                       # What write queue length does an incoming req see
system.mem_ctrls0.wrQLenPdf::31                180969                       # What write queue length does an incoming req see
system.mem_ctrls0.wrQLenPdf::32                180946                       # What write queue length does an incoming req see
system.mem_ctrls0.wrQLenPdf::33                    47                       # What write queue length does an incoming req see
system.mem_ctrls0.wrQLenPdf::34                     4                       # What write queue length does an incoming req see
system.mem_ctrls0.wrQLenPdf::35                     2                       # What write queue length does an incoming req see
system.mem_ctrls0.wrQLenPdf::36                     1                       # What write queue length does an incoming req see
system.mem_ctrls0.wrQLenPdf::37                     0                       # What write queue length does an incoming req see
system.mem_ctrls0.wrQLenPdf::38                     0                       # What write queue length does an incoming req see
system.mem_ctrls0.wrQLenPdf::39                     0                       # What write queue length does an incoming req see
system.mem_ctrls0.wrQLenPdf::40                     0                       # What write queue length does an incoming req see
system.mem_ctrls0.wrQLenPdf::41                     0                       # What write queue length does an incoming req see
system.mem_ctrls0.wrQLenPdf::42                     0                       # What write queue length does an incoming req see
system.mem_ctrls0.wrQLenPdf::43                     0                       # What write queue length does an incoming req see
system.mem_ctrls0.wrQLenPdf::44                     0                       # What write queue length does an incoming req see
system.mem_ctrls0.wrQLenPdf::45                     0                       # What write queue length does an incoming req see
system.mem_ctrls0.wrQLenPdf::46                     0                       # What write queue length does an incoming req see
system.mem_ctrls0.wrQLenPdf::47                     0                       # What write queue length does an incoming req see
system.mem_ctrls0.wrQLenPdf::48                     0                       # What write queue length does an incoming req see
system.mem_ctrls0.wrQLenPdf::49                     0                       # What write queue length does an incoming req see
system.mem_ctrls0.wrQLenPdf::50                     0                       # What write queue length does an incoming req see
system.mem_ctrls0.wrQLenPdf::51                     0                       # What write queue length does an incoming req see
system.mem_ctrls0.wrQLenPdf::52                     0                       # What write queue length does an incoming req see
system.mem_ctrls0.wrQLenPdf::53                     0                       # What write queue length does an incoming req see
system.mem_ctrls0.wrQLenPdf::54                     0                       # What write queue length does an incoming req see
system.mem_ctrls0.wrQLenPdf::55                     0                       # What write queue length does an incoming req see
system.mem_ctrls0.wrQLenPdf::56                     0                       # What write queue length does an incoming req see
system.mem_ctrls0.wrQLenPdf::57                     0                       # What write queue length does an incoming req see
system.mem_ctrls0.wrQLenPdf::58                     0                       # What write queue length does an incoming req see
system.mem_ctrls0.wrQLenPdf::59                     0                       # What write queue length does an incoming req see
system.mem_ctrls0.wrQLenPdf::60                     0                       # What write queue length does an incoming req see
system.mem_ctrls0.wrQLenPdf::61                     0                       # What write queue length does an incoming req see
system.mem_ctrls0.wrQLenPdf::62                     0                       # What write queue length does an incoming req see
system.mem_ctrls0.wrQLenPdf::63                     0                       # What write queue length does an incoming req see
system.mem_ctrls0.bytesPerActivate::samples      6772701                       # Bytes accessed per row activation
system.mem_ctrls0.bytesPerActivate::mean   100.170980                       # Bytes accessed per row activation
system.mem_ctrls0.bytesPerActivate::gmean    82.919162                       # Bytes accessed per row activation
system.mem_ctrls0.bytesPerActivate::stdev    91.754894                       # Bytes accessed per row activation
system.mem_ctrls0.bytesPerActivate::0-127      5143964     75.95%     75.95% # Bytes accessed per row activation
system.mem_ctrls0.bytesPerActivate::128-255      1152917     17.02%     92.97% # Bytes accessed per row activation
system.mem_ctrls0.bytesPerActivate::256-383       266201      3.93%     96.90% # Bytes accessed per row activation
system.mem_ctrls0.bytesPerActivate::384-511       117884      1.74%     98.65% # Bytes accessed per row activation
system.mem_ctrls0.bytesPerActivate::512-639        55659      0.82%     99.47% # Bytes accessed per row activation
system.mem_ctrls0.bytesPerActivate::640-767        20833      0.31%     99.77% # Bytes accessed per row activation
system.mem_ctrls0.bytesPerActivate::768-895         8324      0.12%     99.90% # Bytes accessed per row activation
system.mem_ctrls0.bytesPerActivate::896-1023         3940      0.06%     99.96% # Bytes accessed per row activation
system.mem_ctrls0.bytesPerActivate::1024-1151         2979      0.04%    100.00% # Bytes accessed per row activation
system.mem_ctrls0.bytesPerActivate::total      6772701                       # Bytes accessed per row activation
system.mem_ctrls0.rdPerTurnAround::samples       180937                       # Reads before turning the bus around for writes
system.mem_ctrls0.rdPerTurnAround::mean     41.224907                       # Reads before turning the bus around for writes
system.mem_ctrls0.rdPerTurnAround::gmean    39.533559                       # Reads before turning the bus around for writes
system.mem_ctrls0.rdPerTurnAround::stdev    56.353160                       # Reads before turning the bus around for writes
system.mem_ctrls0.rdPerTurnAround::0-1023       180936    100.00%    100.00% # Reads before turning the bus around for writes
system.mem_ctrls0.rdPerTurnAround::22528-23551            1      0.00%    100.00% # Reads before turning the bus around for writes
system.mem_ctrls0.rdPerTurnAround::total       180937                       # Reads before turning the bus around for writes
system.mem_ctrls0.wrPerTurnAround::samples       180937                       # Writes before turning the bus around for reads
system.mem_ctrls0.wrPerTurnAround::mean     17.361297                       # Writes before turning the bus around for reads
system.mem_ctrls0.wrPerTurnAround::gmean    17.333403                       # Writes before turning the bus around for reads
system.mem_ctrls0.wrPerTurnAround::stdev     0.973653                       # Writes before turning the bus around for reads
system.mem_ctrls0.wrPerTurnAround::16           58491     32.33%     32.33% # Writes before turning the bus around for reads
system.mem_ctrls0.wrPerTurnAround::17            4611      2.55%     34.88% # Writes before turning the bus around for reads
system.mem_ctrls0.wrPerTurnAround::18          112131     61.97%     96.85% # Writes before turning the bus around for reads
system.mem_ctrls0.wrPerTurnAround::19            5409      2.99%     99.84% # Writes before turning the bus around for reads
system.mem_ctrls0.wrPerTurnAround::20             271      0.15%     99.99% # Writes before turning the bus around for reads
system.mem_ctrls0.wrPerTurnAround::21              23      0.01%    100.00% # Writes before turning the bus around for reads
system.mem_ctrls0.wrPerTurnAround::26               1      0.00%    100.00% # Writes before turning the bus around for reads
system.mem_ctrls0.wrPerTurnAround::total       180937                       # Writes before turning the bus around for reads
system.mem_ctrls0.totQLat                157332804191                       # Total ticks spent queuing
system.mem_ctrls0.totMemAccLat           297191941691                       # Total ticks spent from burst creation until serviced by the DRAM
system.mem_ctrls0.totBusLat               37295770000                       # Total ticks spent in databus transfers
system.mem_ctrls0.avgQLat                    21092.58                       # Average queueing delay per DRAM burst
system.mem_ctrls0.avgBusLat                   5000.00                       # Average bus latency per DRAM burst
system.mem_ctrls0.avgMemAccLat               39842.58                       # Average memory access latency per DRAM burst
system.mem_ctrls0.avgRdBW                      163.50                       # Average DRAM read bandwidth in MiByte/s
system.mem_ctrls0.avgWrBW                       68.86                       # Average achieved write bandwidth in MiByte/s
system.mem_ctrls0.avgRdBWSys                   163.60                       # Average system read bandwidth in MiByte/s
system.mem_ctrls0.avgWrBWSys                    68.86                       # Average system write bandwidth in MiByte/s
system.mem_ctrls0.peakBW                     12800.00                       # Theoretical peak bandwidth in MiByte/s
system.mem_ctrls0.busUtil                        1.82                       # Data bus utilization in percentage
system.mem_ctrls0.busUtilRead                    1.28                       # Data bus utilization in percentage for reads
system.mem_ctrls0.busUtilWrite                   0.54                       # Data bus utilization in percentage for writes
system.mem_ctrls0.avgRdQLen                      1.02                       # Average read queue length when enqueuing
system.mem_ctrls0.avgWrQLen                     24.74                       # Average write queue length when enqueuing
system.mem_ctrls0.readRowHits                 3771948                       # Number of row buffer hits during reads
system.mem_ctrls0.writeRowHits                  55798                       # Number of row buffer hits during writes
system.mem_ctrls0.readRowHitRate                50.57                       # Row buffer hit rate for reads
system.mem_ctrls0.writeRowHitRate                1.78                       # Row buffer hit rate for writes
system.mem_ctrls0.avgGap                    275318.57                       # Average gap between requests
system.mem_ctrls0.pageHitRate                   36.11                       # Row buffer hit rate, read and write combined
system.mem_ctrls0_0.actEnergy             24210483360                       # Energy for activate commands per rank (pJ)
system.mem_ctrls0_0.preEnergy             12868165695                       # Energy for precharge commands per rank (pJ)
system.mem_ctrls0_0.readEnergy            26704128360                       # Energy for read commands per rank (pJ)
system.mem_ctrls0_0.writeEnergy            8223655860                       # Energy for write commands per rank (pJ)
system.mem_ctrls0_0.refreshEnergy        231792422160.000061                       # Energy for refresh commands per rank (pJ)
system.mem_ctrls0_0.actBackEnergy        172516758030                       # Energy for active background per rank (pJ)
system.mem_ctrls0_0.preBackEnergy          5585179680                       # Energy for precharge background per rank (pJ)
system.mem_ctrls0_0.actPowerDownEnergy   987712075140                       # Energy for active power-down per rank (pJ)
system.mem_ctrls0_0.prePowerDownEnergy   128805139680                       # Energy for precharge power-down per rank (pJ)
system.mem_ctrls0_0.selfRefreshEnergy      9310346220                       # Energy for self refresh per rank (pJ)
system.mem_ctrls0_0.totalEnergy          1607754733185                       # Total energy per rank (pJ)
system.mem_ctrls0_0.averagePower           550.644761                       # Core power per rank (mW)
system.mem_ctrls0_0.totalIdleTime        2526844386597                       # Total Idle time Per DRAM Rank
system.mem_ctrls0_0.memoryStateTime::IDLE   3675104601                       # Time in different power states
system.mem_ctrls0_0.memoryStateTime::REF  98088362000                       # Time in different power states
system.mem_ctrls0_0.memoryStateTime::SREF  25372631733                       # Time in different power states
system.mem_ctrls0_0.memoryStateTime::PRE_PDN 335432713982                       # Time in different power states
system.mem_ctrls0_0.memoryStateTime::ACT 291159125908                       # Time in different power states
system.mem_ctrls0_0.memoryStateTime::ACT_PDN 2166039654826                       # Time in different power states
system.mem_ctrls0_1.actEnergy             24146658900                       # Energy for activate commands per rank (pJ)
system.mem_ctrls0_1.preEnergy             12834234600                       # Energy for precharge commands per rank (pJ)
system.mem_ctrls0_1.readEnergy            26554231200                       # Energy for read commands per rank (pJ)
system.mem_ctrls0_1.writeEnergy            8173935360                       # Energy for write commands per rank (pJ)
system.mem_ctrls0_1.refreshEnergy        231816393120.000061                       # Energy for refresh commands per rank (pJ)
system.mem_ctrls0_1.actBackEnergy        172462157730                       # Energy for active background per rank (pJ)
system.mem_ctrls0_1.preBackEnergy          5594335200                       # Energy for precharge background per rank (pJ)
system.mem_ctrls0_1.actPowerDownEnergy   985863137640                       # Energy for active power-down per rank (pJ)
system.mem_ctrls0_1.prePowerDownEnergy   130014001440                       # Energy for precharge power-down per rank (pJ)
system.mem_ctrls0_1.selfRefreshEnergy      9650232045                       # Energy for self refresh per rank (pJ)
system.mem_ctrls0_1.totalEnergy          1607135480955                       # Total energy per rank (pJ)
system.mem_ctrls0_1.averagePower           550.432671                       # Core power per rank (mW)
system.mem_ctrls0_1.totalIdleTime        2526933067764                       # Total Idle time Per DRAM Rank
system.mem_ctrls0_1.memoryStateTime::IDLE   3731063993                       # Time in different power states
system.mem_ctrls0_1.memoryStateTime::REF  98099720000                       # Time in different power states
system.mem_ctrls0_1.memoryStateTime::SREF  26375619416                       # Time in different power states
system.mem_ctrls0_1.memoryStateTime::PRE_PDN 338578838389                       # Time in different power states
system.mem_ctrls0_1.memoryStateTime::ACT 291003641501                       # Time in different power states
system.mem_ctrls0_1.memoryStateTime::ACT_PDN 2161978709751                       # Time in different power states
system.mem_ctrls1.pwrStateResidencyTicks::UNDEFINED 129872764117782                       # Cumulative time (in ticks) in various power states
system.mem_ctrls1.bytes_read::cpu.data            128                       # Number of bytes read from this memory
system.mem_ctrls1.bytes_read::switch_cpus.inst        67328                       # Number of bytes read from this memory
system.mem_ctrls1.bytes_read::switch_cpus.data    390315776                       # Number of bytes read from this memory
system.mem_ctrls1.bytes_read::switch_cpus_1.inst        24064                       # Number of bytes read from this memory
system.mem_ctrls1.bytes_read::switch_cpus_1.data     88175808                       # Number of bytes read from this memory
system.mem_ctrls1.bytes_read::total         478583104                       # Number of bytes read from this memory
system.mem_ctrls1.bytes_inst_read::switch_cpus.inst        67328                       # Number of instructions bytes read from this memory
system.mem_ctrls1.bytes_inst_read::switch_cpus_1.inst        24064                       # Number of instructions bytes read from this memory
system.mem_ctrls1.bytes_inst_read::total        91392                       # Number of instructions bytes read from this memory
system.mem_ctrls1.bytes_written::writebacks    200550464                       # Number of bytes written to this memory
system.mem_ctrls1.bytes_written::total      200550464                       # Number of bytes written to this memory
system.mem_ctrls1.num_reads::cpu.data               2                       # Number of read requests responded to by this memory
system.mem_ctrls1.num_reads::switch_cpus.inst         1052                       # Number of read requests responded to by this memory
system.mem_ctrls1.num_reads::switch_cpus.data      6098684                       # Number of read requests responded to by this memory
system.mem_ctrls1.num_reads::switch_cpus_1.inst          376                       # Number of read requests responded to by this memory
system.mem_ctrls1.num_reads::switch_cpus_1.data      1377747                       # Number of read requests responded to by this memory
system.mem_ctrls1.num_reads::total            7477861                       # Number of read requests responded to by this memory
system.mem_ctrls1.num_writes::writebacks      3133601                       # Number of write requests responded to by this memory
system.mem_ctrls1.num_writes::total           3133601                       # Number of write requests responded to by this memory
system.mem_ctrls1.bw_read::cpu.data                44                       # Total read bandwidth from this memory (bytes/s)
system.mem_ctrls1.bw_read::switch_cpus.inst        23059                       # Total read bandwidth from this memory (bytes/s)
system.mem_ctrls1.bw_read::switch_cpus.data    133680426                       # Total read bandwidth from this memory (bytes/s)
system.mem_ctrls1.bw_read::switch_cpus_1.inst         8242                       # Total read bandwidth from this memory (bytes/s)
system.mem_ctrls1.bw_read::switch_cpus_1.data     30199598                       # Total read bandwidth from this memory (bytes/s)
system.mem_ctrls1.bw_read::total            163911369                       # Total read bandwidth from this memory (bytes/s)
system.mem_ctrls1.bw_inst_read::switch_cpus.inst        23059                       # Instruction read bandwidth from this memory (bytes/s)
system.mem_ctrls1.bw_inst_read::switch_cpus_1.inst         8242                       # Instruction read bandwidth from this memory (bytes/s)
system.mem_ctrls1.bw_inst_read::total           31301                       # Instruction read bandwidth from this memory (bytes/s)
system.mem_ctrls1.bw_write::writebacks       68687133                       # Write bandwidth from this memory (bytes/s)
system.mem_ctrls1.bw_write::total            68687133                       # Write bandwidth from this memory (bytes/s)
system.mem_ctrls1.bw_total::writebacks       68687133                       # Total bandwidth to/from this memory (bytes/s)
system.mem_ctrls1.bw_total::cpu.data               44                       # Total bandwidth to/from this memory (bytes/s)
system.mem_ctrls1.bw_total::switch_cpus.inst        23059                       # Total bandwidth to/from this memory (bytes/s)
system.mem_ctrls1.bw_total::switch_cpus.data    133680426                       # Total bandwidth to/from this memory (bytes/s)
system.mem_ctrls1.bw_total::switch_cpus_1.inst         8242                       # Total bandwidth to/from this memory (bytes/s)
system.mem_ctrls1.bw_total::switch_cpus_1.data     30199598                       # Total bandwidth to/from this memory (bytes/s)
system.mem_ctrls1.bw_total::total           232598502                       # Total bandwidth to/from this memory (bytes/s)
system.mem_ctrls1.readReqs                    7477861                       # Number of read requests accepted
system.mem_ctrls1.writeReqs                   3133601                       # Number of write requests accepted
system.mem_ctrls1.readBursts                  7477861                       # Number of DRAM read bursts, including those serviced by the write queue
system.mem_ctrls1.writeBursts                 3133601                       # Number of DRAM write bursts, including those merged in the write queue
system.mem_ctrls1.bytesReadDRAM             478298240                       # Total number of bytes read from DRAM
system.mem_ctrls1.bytesReadWrQ                 284864                       # Total number of bytes read from write queue
system.mem_ctrls1.bytesWritten              200548544                       # Total number of bytes written to DRAM
system.mem_ctrls1.bytesReadSys              478583104                       # Total read bytes from the system interface side
system.mem_ctrls1.bytesWrittenSys           200550464                       # Total written bytes from the system interface side
system.mem_ctrls1.servicedByWrQ                  4451                       # Number of DRAM read bursts serviced by the write queue
system.mem_ctrls1.mergedWrBursts                    0                       # Number of DRAM write bursts merged with an existing one
system.mem_ctrls1.neitherReadNorWriteReqs            0                       # Number of requests that are neither read nor write
system.mem_ctrls1.perBankRdBursts::0           463374                       # Per bank write bursts
system.mem_ctrls1.perBankRdBursts::1           467305                       # Per bank write bursts
system.mem_ctrls1.perBankRdBursts::2           469832                       # Per bank write bursts
system.mem_ctrls1.perBankRdBursts::3           455639                       # Per bank write bursts
system.mem_ctrls1.perBankRdBursts::4           450685                       # Per bank write bursts
system.mem_ctrls1.perBankRdBursts::5           470589                       # Per bank write bursts
system.mem_ctrls1.perBankRdBursts::6           485512                       # Per bank write bursts
system.mem_ctrls1.perBankRdBursts::7           476057                       # Per bank write bursts
system.mem_ctrls1.perBankRdBursts::8           493792                       # Per bank write bursts
system.mem_ctrls1.perBankRdBursts::9           474989                       # Per bank write bursts
system.mem_ctrls1.perBankRdBursts::10          455980                       # Per bank write bursts
system.mem_ctrls1.perBankRdBursts::11          452950                       # Per bank write bursts
system.mem_ctrls1.perBankRdBursts::12          451451                       # Per bank write bursts
system.mem_ctrls1.perBankRdBursts::13          467984                       # Per bank write bursts
system.mem_ctrls1.perBankRdBursts::14          473755                       # Per bank write bursts
system.mem_ctrls1.perBankRdBursts::15          463516                       # Per bank write bursts
system.mem_ctrls1.perBankWrBursts::0           194656                       # Per bank write bursts
system.mem_ctrls1.perBankWrBursts::1           193216                       # Per bank write bursts
system.mem_ctrls1.perBankWrBursts::2           195855                       # Per bank write bursts
system.mem_ctrls1.perBankWrBursts::3           189002                       # Per bank write bursts
system.mem_ctrls1.perBankWrBursts::4           191101                       # Per bank write bursts
system.mem_ctrls1.perBankWrBursts::5           195352                       # Per bank write bursts
system.mem_ctrls1.perBankWrBursts::6           204633                       # Per bank write bursts
system.mem_ctrls1.perBankWrBursts::7           197698                       # Per bank write bursts
system.mem_ctrls1.perBankWrBursts::8           208159                       # Per bank write bursts
system.mem_ctrls1.perBankWrBursts::9           194762                       # Per bank write bursts
system.mem_ctrls1.perBankWrBursts::10          196252                       # Per bank write bursts
system.mem_ctrls1.perBankWrBursts::11          193495                       # Per bank write bursts
system.mem_ctrls1.perBankWrBursts::12          188362                       # Per bank write bursts
system.mem_ctrls1.perBankWrBursts::13          195835                       # Per bank write bursts
system.mem_ctrls1.perBankWrBursts::14          199611                       # Per bank write bursts
system.mem_ctrls1.perBankWrBursts::15          195582                       # Per bank write bursts
system.mem_ctrls1.numRdRetry                        0                       # Number of times read queue was full causing retry
system.mem_ctrls1.numWrRetry                        0                       # Number of times write queue was full causing retry
system.mem_ctrls1.totGap                 2919767144166                       # Total gap between requests
system.mem_ctrls1.readPktSize::0                    0                       # Read request sizes (log2)
system.mem_ctrls1.readPktSize::1                    0                       # Read request sizes (log2)
system.mem_ctrls1.readPktSize::2                    0                       # Read request sizes (log2)
system.mem_ctrls1.readPktSize::3                    0                       # Read request sizes (log2)
system.mem_ctrls1.readPktSize::4                    0                       # Read request sizes (log2)
system.mem_ctrls1.readPktSize::5                    0                       # Read request sizes (log2)
system.mem_ctrls1.readPktSize::6              7477861                       # Read request sizes (log2)
system.mem_ctrls1.writePktSize::0                   0                       # Write request sizes (log2)
system.mem_ctrls1.writePktSize::1                   0                       # Write request sizes (log2)
system.mem_ctrls1.writePktSize::2                   0                       # Write request sizes (log2)
system.mem_ctrls1.writePktSize::3                   0                       # Write request sizes (log2)
system.mem_ctrls1.writePktSize::4                   0                       # Write request sizes (log2)
system.mem_ctrls1.writePktSize::5                   0                       # Write request sizes (log2)
system.mem_ctrls1.writePktSize::6             3133601                       # Write request sizes (log2)
system.mem_ctrls1.rdQLenPdf::0                7186796                       # What read queue length does an incoming req see
system.mem_ctrls1.rdQLenPdf::1                 254482                       # What read queue length does an incoming req see
system.mem_ctrls1.rdQLenPdf::2                  30242                       # What read queue length does an incoming req see
system.mem_ctrls1.rdQLenPdf::3                   1890                       # What read queue length does an incoming req see
system.mem_ctrls1.rdQLenPdf::4                      0                       # What read queue length does an incoming req see
system.mem_ctrls1.rdQLenPdf::5                      0                       # What read queue length does an incoming req see
system.mem_ctrls1.rdQLenPdf::6                      0                       # What read queue length does an incoming req see
system.mem_ctrls1.rdQLenPdf::7                      0                       # What read queue length does an incoming req see
system.mem_ctrls1.rdQLenPdf::8                      0                       # What read queue length does an incoming req see
system.mem_ctrls1.rdQLenPdf::9                      0                       # What read queue length does an incoming req see
system.mem_ctrls1.rdQLenPdf::10                     0                       # What read queue length does an incoming req see
system.mem_ctrls1.rdQLenPdf::11                     0                       # What read queue length does an incoming req see
system.mem_ctrls1.rdQLenPdf::12                     0                       # What read queue length does an incoming req see
system.mem_ctrls1.rdQLenPdf::13                     0                       # What read queue length does an incoming req see
system.mem_ctrls1.rdQLenPdf::14                     0                       # What read queue length does an incoming req see
system.mem_ctrls1.rdQLenPdf::15                     0                       # What read queue length does an incoming req see
system.mem_ctrls1.rdQLenPdf::16                     0                       # What read queue length does an incoming req see
system.mem_ctrls1.rdQLenPdf::17                     0                       # What read queue length does an incoming req see
system.mem_ctrls1.rdQLenPdf::18                     0                       # What read queue length does an incoming req see
system.mem_ctrls1.rdQLenPdf::19                     0                       # What read queue length does an incoming req see
system.mem_ctrls1.rdQLenPdf::20                     0                       # What read queue length does an incoming req see
system.mem_ctrls1.rdQLenPdf::21                     0                       # What read queue length does an incoming req see
system.mem_ctrls1.rdQLenPdf::22                     0                       # What read queue length does an incoming req see
system.mem_ctrls1.rdQLenPdf::23                     0                       # What read queue length does an incoming req see
system.mem_ctrls1.rdQLenPdf::24                     0                       # What read queue length does an incoming req see
system.mem_ctrls1.rdQLenPdf::25                     0                       # What read queue length does an incoming req see
system.mem_ctrls1.rdQLenPdf::26                     0                       # What read queue length does an incoming req see
system.mem_ctrls1.rdQLenPdf::27                     0                       # What read queue length does an incoming req see
system.mem_ctrls1.rdQLenPdf::28                     0                       # What read queue length does an incoming req see
system.mem_ctrls1.rdQLenPdf::29                     0                       # What read queue length does an incoming req see
system.mem_ctrls1.rdQLenPdf::30                     0                       # What read queue length does an incoming req see
system.mem_ctrls1.rdQLenPdf::31                     0                       # What read queue length does an incoming req see
system.mem_ctrls1.wrQLenPdf::0                      2                       # What write queue length does an incoming req see
system.mem_ctrls1.wrQLenPdf::1                      2                       # What write queue length does an incoming req see
system.mem_ctrls1.wrQLenPdf::2                      2                       # What write queue length does an incoming req see
system.mem_ctrls1.wrQLenPdf::3                      2                       # What write queue length does an incoming req see
system.mem_ctrls1.wrQLenPdf::4                      2                       # What write queue length does an incoming req see
system.mem_ctrls1.wrQLenPdf::5                      2                       # What write queue length does an incoming req see
system.mem_ctrls1.wrQLenPdf::6                      2                       # What write queue length does an incoming req see
system.mem_ctrls1.wrQLenPdf::7                      2                       # What write queue length does an incoming req see
system.mem_ctrls1.wrQLenPdf::8                      2                       # What write queue length does an incoming req see
system.mem_ctrls1.wrQLenPdf::9                      2                       # What write queue length does an incoming req see
system.mem_ctrls1.wrQLenPdf::10                     2                       # What write queue length does an incoming req see
system.mem_ctrls1.wrQLenPdf::11                     2                       # What write queue length does an incoming req see
system.mem_ctrls1.wrQLenPdf::12                     2                       # What write queue length does an incoming req see
system.mem_ctrls1.wrQLenPdf::13                     2                       # What write queue length does an incoming req see
system.mem_ctrls1.wrQLenPdf::14                     2                       # What write queue length does an incoming req see
system.mem_ctrls1.wrQLenPdf::15                117696                       # What write queue length does an incoming req see
system.mem_ctrls1.wrQLenPdf::16                122681                       # What write queue length does an incoming req see
system.mem_ctrls1.wrQLenPdf::17                177464                       # What write queue length does an incoming req see
system.mem_ctrls1.wrQLenPdf::18                180645                       # What write queue length does an incoming req see
system.mem_ctrls1.wrQLenPdf::19                180846                       # What write queue length does an incoming req see
system.mem_ctrls1.wrQLenPdf::20                180847                       # What write queue length does an incoming req see
system.mem_ctrls1.wrQLenPdf::21                180792                       # What write queue length does an incoming req see
system.mem_ctrls1.wrQLenPdf::22                180821                       # What write queue length does an incoming req see
system.mem_ctrls1.wrQLenPdf::23                180973                       # What write queue length does an incoming req see
system.mem_ctrls1.wrQLenPdf::24                180786                       # What write queue length does an incoming req see
system.mem_ctrls1.wrQLenPdf::25                182458                       # What write queue length does an incoming req see
system.mem_ctrls1.wrQLenPdf::26                181837                       # What write queue length does an incoming req see
system.mem_ctrls1.wrQLenPdf::27                180847                       # What write queue length does an incoming req see
system.mem_ctrls1.wrQLenPdf::28                180782                       # What write queue length does an incoming req see
system.mem_ctrls1.wrQLenPdf::29                181028                       # What write queue length does an incoming req see
system.mem_ctrls1.wrQLenPdf::30                182074                       # What write queue length does an incoming req see
system.mem_ctrls1.wrQLenPdf::31                180485                       # What write queue length does an incoming req see
system.mem_ctrls1.wrQLenPdf::32                180461                       # What write queue length does an incoming req see
system.mem_ctrls1.wrQLenPdf::33                    43                       # What write queue length does an incoming req see
system.mem_ctrls1.wrQLenPdf::34                     4                       # What write queue length does an incoming req see
system.mem_ctrls1.wrQLenPdf::35                     1                       # What write queue length does an incoming req see
system.mem_ctrls1.wrQLenPdf::36                     0                       # What write queue length does an incoming req see
system.mem_ctrls1.wrQLenPdf::37                     0                       # What write queue length does an incoming req see
system.mem_ctrls1.wrQLenPdf::38                     0                       # What write queue length does an incoming req see
system.mem_ctrls1.wrQLenPdf::39                     0                       # What write queue length does an incoming req see
system.mem_ctrls1.wrQLenPdf::40                     0                       # What write queue length does an incoming req see
system.mem_ctrls1.wrQLenPdf::41                     0                       # What write queue length does an incoming req see
system.mem_ctrls1.wrQLenPdf::42                     0                       # What write queue length does an incoming req see
system.mem_ctrls1.wrQLenPdf::43                     0                       # What write queue length does an incoming req see
system.mem_ctrls1.wrQLenPdf::44                     0                       # What write queue length does an incoming req see
system.mem_ctrls1.wrQLenPdf::45                     0                       # What write queue length does an incoming req see
system.mem_ctrls1.wrQLenPdf::46                     0                       # What write queue length does an incoming req see
system.mem_ctrls1.wrQLenPdf::47                     0                       # What write queue length does an incoming req see
system.mem_ctrls1.wrQLenPdf::48                     0                       # What write queue length does an incoming req see
system.mem_ctrls1.wrQLenPdf::49                     0                       # What write queue length does an incoming req see
system.mem_ctrls1.wrQLenPdf::50                     0                       # What write queue length does an incoming req see
system.mem_ctrls1.wrQLenPdf::51                     0                       # What write queue length does an incoming req see
system.mem_ctrls1.wrQLenPdf::52                     0                       # What write queue length does an incoming req see
system.mem_ctrls1.wrQLenPdf::53                     0                       # What write queue length does an incoming req see
system.mem_ctrls1.wrQLenPdf::54                     0                       # What write queue length does an incoming req see
system.mem_ctrls1.wrQLenPdf::55                     0                       # What write queue length does an incoming req see
system.mem_ctrls1.wrQLenPdf::56                     0                       # What write queue length does an incoming req see
system.mem_ctrls1.wrQLenPdf::57                     0                       # What write queue length does an incoming req see
system.mem_ctrls1.wrQLenPdf::58                     0                       # What write queue length does an incoming req see
system.mem_ctrls1.wrQLenPdf::59                     0                       # What write queue length does an incoming req see
system.mem_ctrls1.wrQLenPdf::60                     0                       # What write queue length does an incoming req see
system.mem_ctrls1.wrQLenPdf::61                     0                       # What write queue length does an incoming req see
system.mem_ctrls1.wrQLenPdf::62                     0                       # What write queue length does an incoming req see
system.mem_ctrls1.wrQLenPdf::63                     0                       # What write queue length does an incoming req see
system.mem_ctrls1.bytesPerActivate::samples      6764157                       # Bytes accessed per row activation
system.mem_ctrls1.bytesPerActivate::mean   100.359246                       # Bytes accessed per row activation
system.mem_ctrls1.bytesPerActivate::gmean    83.019775                       # Bytes accessed per row activation
system.mem_ctrls1.bytesPerActivate::stdev    92.032020                       # Bytes accessed per row activation
system.mem_ctrls1.bytesPerActivate::0-127      5129984     75.84%     75.84% # Bytes accessed per row activation
system.mem_ctrls1.bytesPerActivate::128-255      1156426     17.10%     92.94% # Bytes accessed per row activation
system.mem_ctrls1.bytesPerActivate::256-383       266292      3.94%     96.87% # Bytes accessed per row activation
system.mem_ctrls1.bytesPerActivate::384-511       118246      1.75%     98.62% # Bytes accessed per row activation
system.mem_ctrls1.bytesPerActivate::512-639        57063      0.84%     99.47% # Bytes accessed per row activation
system.mem_ctrls1.bytesPerActivate::640-767        20868      0.31%     99.77% # Bytes accessed per row activation
system.mem_ctrls1.bytesPerActivate::768-895         8412      0.12%     99.90% # Bytes accessed per row activation
system.mem_ctrls1.bytesPerActivate::896-1023         3927      0.06%     99.96% # Bytes accessed per row activation
system.mem_ctrls1.bytesPerActivate::1024-1151         2939      0.04%    100.00% # Bytes accessed per row activation
system.mem_ctrls1.bytesPerActivate::total      6764157                       # Bytes accessed per row activation
system.mem_ctrls1.rdPerTurnAround::samples       180453                       # Reads before turning the bus around for writes
system.mem_ctrls1.rdPerTurnAround::mean     41.414535                       # Reads before turning the bus around for writes
system.mem_ctrls1.rdPerTurnAround::gmean    39.709027                       # Reads before turning the bus around for writes
system.mem_ctrls1.rdPerTurnAround::stdev    57.879156                       # Reads before turning the bus around for writes
system.mem_ctrls1.rdPerTurnAround::0-1023       180452    100.00%    100.00% # Reads before turning the bus around for writes
system.mem_ctrls1.rdPerTurnAround::23552-24575            1      0.00%    100.00% # Reads before turning the bus around for writes
system.mem_ctrls1.rdPerTurnAround::total       180453                       # Reads before turning the bus around for writes
system.mem_ctrls1.wrPerTurnAround::samples       180453                       # Writes before turning the bus around for reads
system.mem_ctrls1.wrPerTurnAround::mean     17.365026                       # Writes before turning the bus around for reads
system.mem_ctrls1.wrPerTurnAround::gmean    17.337262                       # Writes before turning the bus around for reads
system.mem_ctrls1.wrPerTurnAround::stdev     0.971235                       # Writes before turning the bus around for reads
system.mem_ctrls1.wrPerTurnAround::16           57965     32.12%     32.12% # Writes before turning the bus around for reads
system.mem_ctrls1.wrPerTurnAround::17            4556      2.52%     34.65% # Writes before turning the bus around for reads
system.mem_ctrls1.wrPerTurnAround::18          112335     62.25%     96.90% # Writes before turning the bus around for reads
system.mem_ctrls1.wrPerTurnAround::19            5314      2.94%     99.84% # Writes before turning the bus around for reads
system.mem_ctrls1.wrPerTurnAround::20             260      0.14%     99.99% # Writes before turning the bus around for reads
system.mem_ctrls1.wrPerTurnAround::21              23      0.01%    100.00% # Writes before turning the bus around for reads
system.mem_ctrls1.wrPerTurnAround::total       180453                       # Writes before turning the bus around for reads
system.mem_ctrls1.totQLat                157113631199                       # Total ticks spent queuing
system.mem_ctrls1.totMemAccLat           297240068699                       # Total ticks spent from burst creation until serviced by the DRAM
system.mem_ctrls1.totBusLat               37367050000                       # Total ticks spent in databus transfers
system.mem_ctrls1.avgQLat                    21023.02                       # Average queueing delay per DRAM burst
system.mem_ctrls1.avgBusLat                   5000.00                       # Average bus latency per DRAM burst
system.mem_ctrls1.avgMemAccLat               39773.02                       # Average memory access latency per DRAM burst
system.mem_ctrls1.avgRdBW                      163.81                       # Average DRAM read bandwidth in MiByte/s
system.mem_ctrls1.avgWrBW                       68.69                       # Average achieved write bandwidth in MiByte/s
system.mem_ctrls1.avgRdBWSys                   163.91                       # Average system read bandwidth in MiByte/s
system.mem_ctrls1.avgWrBWSys                    68.69                       # Average system write bandwidth in MiByte/s
system.mem_ctrls1.peakBW                     12800.00                       # Theoretical peak bandwidth in MiByte/s
system.mem_ctrls1.busUtil                        1.82                       # Data bus utilization in percentage
system.mem_ctrls1.busUtilRead                    1.28                       # Data bus utilization in percentage for reads
system.mem_ctrls1.busUtilWrite                   0.54                       # Data bus utilization in percentage for writes
system.mem_ctrls1.avgRdQLen                      1.02                       # Average read queue length when enqueuing
system.mem_ctrls1.avgWrQLen                     24.73                       # Average write queue length when enqueuing
system.mem_ctrls1.readRowHits                 3786816                       # Number of row buffer hits during reads
system.mem_ctrls1.writeRowHits                  56002                       # Number of row buffer hits during writes
system.mem_ctrls1.readRowHitRate                50.67                       # Row buffer hit rate for reads
system.mem_ctrls1.writeRowHitRate                1.79                       # Row buffer hit rate for writes
system.mem_ctrls1.avgGap                    275152.20                       # Average gap between requests
system.mem_ctrls1.pageHitRate                   36.23                       # Row buffer hit rate, read and write combined
system.mem_ctrls1_0.actEnergy             24111444420                       # Energy for activate commands per rank (pJ)
system.mem_ctrls1_0.preEnergy             12815521455                       # Energy for precharge commands per rank (pJ)
system.mem_ctrls1_0.readEnergy            26696410020                       # Energy for read commands per rank (pJ)
system.mem_ctrls1_0.writeEnergy            8151097860                       # Energy for write commands per rank (pJ)
system.mem_ctrls1_0.refreshEnergy        231674411280.000061                       # Energy for refresh commands per rank (pJ)
system.mem_ctrls1_0.actBackEnergy        172104459930                       # Energy for active background per rank (pJ)
system.mem_ctrls1_0.preBackEnergy          5563650240                       # Energy for precharge background per rank (pJ)
system.mem_ctrls1_0.actPowerDownEnergy   989449123920                       # Energy for active power-down per rank (pJ)
system.mem_ctrls1_0.prePowerDownEnergy   127797448320                       # Energy for precharge power-down per rank (pJ)
system.mem_ctrls1_0.selfRefreshEnergy      9125465235                       # Energy for self refresh per rank (pJ)
system.mem_ctrls1_0.totalEnergy          1607516426280                       # Total energy per rank (pJ)
system.mem_ctrls1_0.averagePower           550.563140                       # Core power per rank (mW)
system.mem_ctrls1_0.totalIdleTime        2527794422645                       # Total Idle time Per DRAM Rank
system.mem_ctrls1_0.memoryStateTime::IDLE   3619012886                       # Time in different power states
system.mem_ctrls1_0.memoryStateTime::REF  98036960000                       # Time in different power states
system.mem_ctrls1_0.memoryStateTime::SREF  25145457092                       # Time in different power states
system.mem_ctrls1_0.memoryStateTime::PRE_PDN 332803208483                       # Time in different power states
system.mem_ctrls1_0.memoryStateTime::ACT 290316168324                       # Time in different power states
system.mem_ctrls1_0.memoryStateTime::ACT_PDN 2169846786265                       # Time in different power states
system.mem_ctrls1_1.actEnergy             24184679400                       # Energy for activate commands per rank (pJ)
system.mem_ctrls1_1.preEnergy             12854454360                       # Energy for precharge commands per rank (pJ)
system.mem_ctrls1_1.readEnergy            26663737380                       # Energy for read commands per rank (pJ)
system.mem_ctrls1_1.writeEnergy            8206142760                       # Energy for write commands per rank (pJ)
system.mem_ctrls1_1.refreshEnergy        231852042240.000061                       # Energy for refresh commands per rank (pJ)
system.mem_ctrls1_1.actBackEnergy        172449759660                       # Energy for active background per rank (pJ)
system.mem_ctrls1_1.preBackEnergy          5606661120                       # Energy for precharge background per rank (pJ)
system.mem_ctrls1_1.actPowerDownEnergy   985801655160                       # Energy for active power-down per rank (pJ)
system.mem_ctrls1_1.prePowerDownEnergy   130045528800                       # Energy for precharge power-down per rank (pJ)
system.mem_ctrls1_1.selfRefreshEnergy      9700254135                       # Energy for self refresh per rank (pJ)
system.mem_ctrls1_1.totalEnergy          1607391308085                       # Total energy per rank (pJ)
system.mem_ctrls1_1.averagePower           550.520289                       # Core power per rank (mW)
system.mem_ctrls1_1.totalIdleTime        2526930910453                       # Total Idle time Per DRAM Rank
system.mem_ctrls1_1.memoryStateTime::IDLE   3751923655                       # Time in different power states
system.mem_ctrls1_1.memoryStateTime::REF  98115202000                       # Time in different power states
system.mem_ctrls1_1.memoryStateTime::SREF  26422850198                       # Time in different power states
system.mem_ctrls1_1.memoryStateTime::PRE_PDN 338661645891                       # Time in different power states
system.mem_ctrls1_1.memoryStateTime::ACT 290969207497                       # Time in different power states
system.mem_ctrls1_1.memoryStateTime::ACT_PDN 2161846763809                       # Time in different power states
system.pwrStateResidencyTicks::UNDEFINED 129872764117782                       # Cumulative time (in ticks) in various power states
system.cpu.branchPred.lookups                       3                       # Number of BP lookups
system.cpu.branchPred.condPredicted                 3                       # Number of conditional branches predicted
system.cpu.branchPred.condIncorrect                 1                       # Number of conditional branches incorrect
system.cpu.branchPred.BTBLookups                    0                       # Number of BTB lookups
system.cpu.branchPred.BTBHits                       0                       # Number of BTB hits
system.cpu.branchPred.BTBCorrect                    0                       # Number of correct BTB predictions (this stat may not work properly.
system.cpu.branchPred.BTBHitPct                   nan                       # BTB Hit Percentage
system.cpu.branchPred.usedRAS                       0                       # Number of times the RAS was used to get a target.
system.cpu.branchPred.RASInCorrect                  0                       # Number of incorrect RAS predictions.
system.cpu.branchPred.indirectLookups               0                       # Number of indirect predictor lookups.
system.cpu.branchPred.indirectHits                  0                       # Number of indirect target hits.
system.cpu.branchPred.indirectMisses                0                       # Number of indirect misses.
system.cpu.branchPredindirectMispredicted            0                       # Number of mispredicted indirect branches.
system.cpu_voltage_domain.voltage                   1                       # Voltage in Volts
system.cpu_clk_domain.clock                       333                       # Clock period in ticks
system.cpu.dtb.fetch_hits                           0                       # ITB hits
system.cpu.dtb.fetch_misses                         0                       # ITB misses
system.cpu.dtb.fetch_acv                            0                       # ITB acv
system.cpu.dtb.fetch_accesses                       0                       # ITB accesses
system.cpu.dtb.read_hits                            2                       # DTB read hits
system.cpu.dtb.read_misses                          0                       # DTB read misses
system.cpu.dtb.read_acv                             0                       # DTB read access violations
system.cpu.dtb.read_accesses                        2                       # DTB read accesses
system.cpu.dtb.write_hits                           0                       # DTB write hits
system.cpu.dtb.write_misses                         0                       # DTB write misses
system.cpu.dtb.write_acv                            0                       # DTB write access violations
system.cpu.dtb.write_accesses                       0                       # DTB write accesses
system.cpu.dtb.data_hits                            2                       # DTB hits
system.cpu.dtb.data_misses                          0                       # DTB misses
system.cpu.dtb.data_acv                             0                       # DTB access violations
system.cpu.dtb.data_accesses                        2                       # DTB accesses
system.cpu.itb.fetch_hits                           3                       # ITB hits
system.cpu.itb.fetch_misses                         0                       # ITB misses
system.cpu.itb.fetch_acv                            0                       # ITB acv
system.cpu.itb.fetch_accesses                       3                       # ITB accesses
system.cpu.itb.read_hits                            0                       # DTB read hits
system.cpu.itb.read_misses                          0                       # DTB read misses
system.cpu.itb.read_acv                             0                       # DTB read access violations
system.cpu.itb.read_accesses                        0                       # DTB read accesses
system.cpu.itb.write_hits                           0                       # DTB write hits
system.cpu.itb.write_misses                         0                       # DTB write misses
system.cpu.itb.write_acv                            0                       # DTB write access violations
system.cpu.itb.write_accesses                       0                       # DTB write accesses
system.cpu.itb.data_hits                            0                       # DTB hits
system.cpu.itb.data_misses                          0                       # DTB misses
system.cpu.itb.data_acv                             0                       # DTB access violations
system.cpu.itb.data_accesses                        0                       # DTB accesses
system.cpu.workload.num_syscalls                    0                       # Number of system calls
system.cpu.pwrStateResidencyTicks::ON    2919767593050                       # Cumulative time (in ticks) in various power states
system.cpu.numCycles                              372                       # number of cpu cycles simulated
system.cpu.numWorkItemsStarted                      0                       # number of work items this cpu started
system.cpu.numWorkItemsCompleted                    0                       # number of work items this cpu completed
system.cpu.fetch.icacheStallCycles                 19                       # Number of cycles fetch is stalled on an Icache miss
system.cpu.fetch.Insts                              9                       # Number of instructions fetch has processed
system.cpu.fetch.Branches                           3                       # Number of branches that fetch encountered
system.cpu.fetch.Cycles                             2                       # Number of cycles fetch has run and was not squashing or blocked
system.cpu.fetch.SquashCycles                       5                       # Number of cycles fetch has spent squashing
system.cpu.fetch.PendingDrainCycles                 3                       # Number of cycles fetch has spent waiting on pipes to drain
system.cpu.fetch.CacheLines                         3                       # Number of cache lines fetched
system.cpu.fetch.IcacheSquashes                     2                       # Number of outstanding Icache misses that were squashed
system.cpu.fetch.rateDist::samples                 26                       # Number of instructions fetched each cycle (Total)
system.cpu.fetch.rateDist::mean              0.346154                       # Number of instructions fetched each cycle (Total)
system.cpu.fetch.rateDist::stdev             1.573336                       # Number of instructions fetched each cycle (Total)
system.cpu.fetch.rateDist::underflows               0      0.00%      0.00% # Number of instructions fetched each cycle (Total)
system.cpu.fetch.rateDist::0                       24     92.31%     92.31% # Number of instructions fetched each cycle (Total)
system.cpu.fetch.rateDist::1                        1      3.85%     96.15% # Number of instructions fetched each cycle (Total)
system.cpu.fetch.rateDist::2                        0      0.00%     96.15% # Number of instructions fetched each cycle (Total)
system.cpu.fetch.rateDist::3                        0      0.00%     96.15% # Number of instructions fetched each cycle (Total)
system.cpu.fetch.rateDist::4                        0      0.00%     96.15% # Number of instructions fetched each cycle (Total)
system.cpu.fetch.rateDist::5                        0      0.00%     96.15% # Number of instructions fetched each cycle (Total)
system.cpu.fetch.rateDist::6                        0      0.00%     96.15% # Number of instructions fetched each cycle (Total)
system.cpu.fetch.rateDist::7                        0      0.00%     96.15% # Number of instructions fetched each cycle (Total)
system.cpu.fetch.rateDist::8                        1      3.85%    100.00% # Number of instructions fetched each cycle (Total)
system.cpu.fetch.rateDist::overflows                0      0.00%    100.00% # Number of instructions fetched each cycle (Total)
system.cpu.fetch.rateDist::min_value                0                       # Number of instructions fetched each cycle (Total)
system.cpu.fetch.rateDist::max_value                8                       # Number of instructions fetched each cycle (Total)
system.cpu.fetch.rateDist::total                   26                       # Number of instructions fetched each cycle (Total)
system.cpu.fetch.branchRate                  0.008065                       # Number of branch fetches per cycle
system.cpu.fetch.rate                        0.024194                       # Number of inst fetches per cycle
system.cpu.decode.IdleCycles                       21                       # Number of cycles decode is idle
system.cpu.decode.RunCycles                         2                       # Number of cycles decode is running
system.cpu.decode.SquashCycles                      3                       # Number of cycles decode is squashing
[...]
system.switch_cpus_1.iq.int_inst_queue_wakeup_accesses    320660868                       # Number of integer instruction queue wakeup accesses
system.switch_cpus_1.iq.fp_inst_queue_reads     69828687                       # Number of floating instruction queue reads
system.switch_cpus_1.iq.fp_inst_queue_writes    112162644                       # Number of floating instruction queue writes
system.switch_cpus_1.iq.fp_inst_queue_wakeup_accesses     28757758                       # Number of floating instruction queue wakeup accesses
system.switch_cpus_1.iq.int_alu_accesses    351351477                       # Number of integer alu accesses
system.switch_cpus_1.iq.fp_alu_accesses      35110906                       # Number of floating point alu accesses
system.switch_cpus_1.iew.lsq.thread0.forwLoads      9373713                       # Number of loads that had data forwarded from stores
system.switch_cpus_1.iew.lsq.thread0.invAddrLoads            0                       # Number of loads ignored due to an invalid address
system.switch_cpus_1.iew.lsq.thread0.squashedLoads     68197415                       # Number of loads squashed
system.switch_cpus_1.iew.lsq.thread0.ignoredResponses        27875                       # Number of memory responses ignored because the instruction is squashed
system.switch_cpus_1.iew.lsq.thread0.memOrderViolation        11169                       # Number of memory ordering violations
system.switch_cpus_1.iew.lsq.thread0.squashedStores     29534823                       # Number of stores squashed
system.switch_cpus_1.iew.lsq.thread0.invAddrSwpfs            0                       # Number of software prefetches ignored due to an invalid address
system.switch_cpus_1.iew.lsq.thread0.blockedLoads            0                       # Number of blocked loads due to partial load-store forwarding
system.switch_cpus_1.iew.lsq.thread0.rescheduledLoads          468                       # Number of loads that were rescheduled
system.switch_cpus_1.iew.lsq.thread0.cacheBlocked      2638767                       # Number of times an access to memory failed due to the cache being blocked
system.switch_cpus_1.iew.iewIdleCycles              0                       # Number of cycles IEW is idle
system.switch_cpus_1.iew.iewSquashCycles      3813650                       # Number of cycles IEW is squashing
system.switch_cpus_1.iew.iewBlockCycles     192935963                       # Number of cycles IEW is blocking
system.switch_cpus_1.iew.iewUnblockCycles    108822540                       # Number of cycles IEW is unblocking
system.switch_cpus_1.iew.iewDispatchedInsts    487347732                       # Number of instructions dispatched to IQ
system.switch_cpus_1.iew.iewDispSquashedInsts       129445                       # Number of squashed instructions skipped by dispatch
system.switch_cpus_1.iew.iewDispLoadInsts    115924671                       # Number of dispatched load instructions
system.switch_cpus_1.iew.iewDispStoreInsts     58763650                       # Number of dispatched store instructions
system.switch_cpus_1.iew.iewDispNonSpecInsts       529323                       # Number of dispatched non-speculative instructions
system.switch_cpus_1.iew.iewIQFullEvents      1282910                       # Number of times the IQ has become full, causing a stall
system.switch_cpus_1.iew.iewLSQFullEvents    107279393                       # Number of times the LSQ has become full, causing a stall
system.switch_cpus_1.iew.memOrderViolationEvents        11169                       # Number of memory order violations
system.switch_cpus_1.iew.predictedTakenIncorrect       756988                       # Number of branches that were predicted taken incorrectly
system.switch_cpus_1.iew.predictedNotTakenIncorrect      1143919                       # Number of branches that were predicted not taken incorrectly
system.switch_cpus_1.iew.branchMispredicts      1900907                       # Number of branch mispredicts detected at execute
system.switch_cpus_1.iew.iewExecutedInsts    375265302                       # Number of executed instructions
system.switch_cpus_1.iew.iewExecLoadInsts    102549956                       # Number of load instructions executed
system.switch_cpus_1.iew.iewExecSquashedInsts      4143511                       # Number of squashed instructions skipped in execute
system.switch_cpus_1.iew.exec_swp                   0                       # number of swp insts executed
system.switch_cpus_1.iew.exec_nop            23220036                       # number of nop insts executed
system.switch_cpus_1.iew.exec_refs          154838412                       # number of memory reference insts executed
system.switch_cpus_1.iew.exec_branches       72529235                       # Number of branches executed
system.switch_cpus_1.iew.exec_stores         52288456                       # Number of stores executed
system.switch_cpus_1.iew.exec_rate           0.451105                       # Inst execution rate
system.switch_cpus_1.iew.wb_sent            369884225                       # cumulative count of insts sent to commit
system.switch_cpus_1.iew.wb_count           349418626                       # cumulative count of insts written-back
system.switch_cpus_1.iew.wb_producers       176885043                       # num instructions producing a value
system.switch_cpus_1.iew.wb_consumers       259553867                       # num instructions consuming a value
system.switch_cpus_1.iew.wb_rate             0.420035                       # insts written-back per cycle
system.switch_cpus_1.iew.wb_fanout           0.681496                       # average fanout of values written-back
system.switch_cpus_1.commit.commitSquashedInsts    230749649                       # The number of squashed insts skipped by commit
system.switch_cpus_1.commit.commitNonSpecStalls       665598                       # The number of times commit has been forced to stall to communicate backwards
system.switch_cpus_1.commit.branchMispredicts      1460102                       # The number of times a branch was mispredicted
system.switch_cpus_1.commit.committed_per_cycle::samples    798298624                       # Number of insts commited each cycle
system.switch_cpus_1.commit.committed_per_cycle::mean     0.267562                       # Number of insts commited each cycle
system.switch_cpus_1.commit.committed_per_cycle::stdev     1.256657                       # Number of insts commited each cycle
system.switch_cpus_1.commit.committed_per_cycle::underflows            0      0.00%      0.00% # Number of insts commited each cycle
system.switch_cpus_1.commit.committed_per_cycle::0    744123290     93.21%     93.21% # Number of insts commited each cycle
system.switch_cpus_1.commit.committed_per_cycle::1     19869965      2.49%     95.70% # Number of insts commited each cycle
system.switch_cpus_1.commit.committed_per_cycle::2      6007002      0.75%     96.46% # Number of insts commited each cycle
system.switch_cpus_1.commit.committed_per_cycle::3      3724766      0.47%     96.92% # Number of insts commited each cycle
system.switch_cpus_1.commit.committed_per_cycle::4      3288097      0.41%     97.33% # Number of insts commited each cycle
system.switch_cpus_1.commit.committed_per_cycle::5      2534069      0.32%     97.65% # Number of insts commited each cycle
system.switch_cpus_1.commit.committed_per_cycle::6      1904377      0.24%     97.89% # Number of insts commited each cycle
system.switch_cpus_1.commit.committed_per_cycle::7      1489316      0.19%     98.08% # Number of insts commited each cycle
system.switch_cpus_1.commit.committed_per_cycle::8     15357742      1.92%    100.00% # Number of insts commited each cycle
system.switch_cpus_1.commit.committed_per_cycle::overflows            0      0.00%    100.00% # Number of insts commited each cycle
system.switch_cpus_1.commit.committed_per_cycle::min_value            0                       # Number of insts commited each cycle
system.switch_cpus_1.commit.committed_per_cycle::max_value            8                       # Number of insts commited each cycle
system.switch_cpus_1.commit.committed_per_cycle::total    798298624                       # Number of insts commited each cycle
system.switch_cpus_1.commit.committedInsts    213594410                       # Number of instructions committed
system.switch_cpus_1.commit.committedOps    213594410                       # Number of ops (including micro ops) committed
system.switch_cpus_1.commit.swp_count               0                       # Number of s/w prefetches committed
system.switch_cpus_1.commit.refs             76956073                       # Number of memory references committed
system.switch_cpus_1.commit.loads            47727246                       # Number of loads committed
system.switch_cpus_1.commit.membars            332799                       # Number of memory barriers committed
system.switch_cpus_1.commit.branches         42872050                       # Number of branches committed
system.switch_cpus_1.commit.fp_insts         19258208                       # Number of committed floating point instructions.
system.switch_cpus_1.commit.int_insts       185197309                       # Number of committed integer instructions.
system.switch_cpus_1.commit.function_calls      6276853                       # Number of function calls committed.
system.switch_cpus_1.commit.op_class_0::No_OpClass     13768422      6.45%      6.45% # Class of committed instruction
system.switch_cpus_1.commit.op_class_0::IntAlu    110964867     51.95%     58.40% # Class of committed instruction
system.switch_cpus_1.commit.op_class_0::IntMult        87084      0.04%     58.44% # Class of committed instruction
system.switch_cpus_1.commit.op_class_0::IntDiv            0      0.00%     58.44% # Class of committed instruction
system.switch_cpus_1.commit.op_class_0::FloatAdd      6284834      2.94%     61.38% # Class of committed instruction
system.switch_cpus_1.commit.op_class_0::FloatCmp      4706081      2.20%     63.58% # Class of committed instruction
system.switch_cpus_1.commit.op_class_0::FloatCvt       352967      0.17%     63.75% # Class of committed instruction
system.switch_cpus_1.commit.op_class_0::FloatMult        54220      0.03%     63.77% # Class of committed instruction
system.switch_cpus_1.commit.op_class_0::FloatMultAcc            0      0.00%     63.77% # Class of committed instruction
system.switch_cpus_1.commit.op_class_0::FloatDiv        87048      0.04%     63.82% # Class of committed instruction
system.switch_cpus_1.commit.op_class_0::FloatMisc            0      0.00%     63.82% # Class of committed instruction
system.switch_cpus_1.commit.op_class_0::FloatSqrt           15      0.00%     63.82% # Class of committed instruction
system.switch_cpus_1.commit.op_class_0::SimdAdd            0      0.00%     63.82% # Class of committed instruction
system.switch_cpus_1.commit.op_class_0::SimdAddAcc            0      0.00%     63.82% # Class of committed instruction
system.switch_cpus_1.commit.op_class_0::SimdAlu            0      0.00%     63.82% # Class of committed instruction
system.switch_cpus_1.commit.op_class_0::SimdCmp            0      0.00%     63.82% # Class of committed instruction
system.switch_cpus_1.commit.op_class_0::SimdCvt            0      0.00%     63.82% # Class of committed instruction
system.switch_cpus_1.commit.op_class_0::SimdMisc            0      0.00%     63.82% # Class of committed instruction
system.switch_cpus_1.commit.op_class_0::SimdMult            0      0.00%     63.82% # Class of committed instruction
system.switch_cpus_1.commit.op_class_0::SimdMultAcc            0      0.00%     63.82% # Class of committed instruction
system.switch_cpus_1.commit.op_class_0::SimdShift            0      0.00%     63.82% # Class of committed instruction
system.switch_cpus_1.commit.op_class_0::SimdShiftAcc            0      0.00%     63.82% # Class of committed instruction
system.switch_cpus_1.commit.op_class_0::SimdSqrt            0      0.00%     63.82% # Class of committed instruction
system.switch_cpus_1.commit.op_class_0::SimdFloatAdd            0      0.00%     63.82% # Class of committed instruction
system.switch_cpus_1.commit.op_class_0::SimdFloatAlu            0      0.00%     63.82% # Class of committed instruction
system.switch_cpus_1.commit.op_class_0::SimdFloatCmp            0      0.00%     63.82% # Class of committed instruction
system.switch_cpus_1.commit.op_class_0::SimdFloatCvt            0      0.00%     63.82% # Class of committed instruction
system.switch_cpus_1.commit.op_class_0::SimdFloatDiv            0      0.00%     63.82% # Class of committed instruction
system.switch_cpus_1.commit.op_class_0::SimdFloatMisc            0      0.00%     63.82% # Class of committed instruction
system.switch_cpus_1.commit.op_class_0::SimdFloatMult            0      0.00%     63.82% # Class of committed instruction
system.switch_cpus_1.commit.op_class_0::SimdFloatMultAcc            0      0.00%     63.82% # Class of committed instruction
system.switch_cpus_1.commit.op_class_0::SimdFloatSqrt            0      0.00%     63.82% # Class of committed instruction
system.switch_cpus_1.commit.op_class_0::MemRead     41999437     19.66%     83.48% # Class of committed instruction
system.switch_cpus_1.commit.op_class_0::MemWrite     27516392     12.88%     96.36% # Class of committed instruction
system.switch_cpus_1.commit.op_class_0::FloatMemRead      6060608      2.84%     99.20% # Class of committed instruction
system.switch_cpus_1.commit.op_class_0::FloatMemWrite      1712435      0.80%    100.00% # Class of committed instruction
system.switch_cpus_1.commit.op_class_0::IprAccess            0      0.00%    100.00% # Class of committed instruction
system.switch_cpus_1.commit.op_class_0::InstPrefetch            0      0.00%    100.00% # Class of committed instruction
system.switch_cpus_1.commit.op_class_0::total    213594410                       # Class of committed instruction
system.switch_cpus_1.commit.bw_lim_events     15357742                       # number cycles where commit BW limit reached
system.switch_cpus_1.rob.rob_reads         1196803594                       # The number of ROB reads
system.switch_cpus_1.rob.rob_writes         920623787                       # The number of ROB writes
system.switch_cpus_1.timesIdled                 22214                       # Number of times that the entire CPU went into an idle state and unscheduled itself
system.switch_cpus_1.idleCycles               1701643                       # Total number of cycles that the CPU has spent unscheduled due to idling
system.switch_cpus_1.committedInsts         200000000                       # Number of Instructions Simulated
system.switch_cpus_1.committedOps           200000000                       # Number of Ops (including micro ops) Simulated
system.switch_cpus_1.cpi                     4.159403                       # CPI: Cycles Per Instruction
system.switch_cpus_1.cpi_total               4.159403                       # CPI: Total CPI of All Threads
system.switch_cpus_1.ipc                     0.240419                       # IPC: Instructions Per Cycle
system.switch_cpus_1.ipc_total               0.240419                       # IPC: Total IPC of All Threads
system.switch_cpus_1.int_regfile_reads      475907071                       # number of integer regfile reads
system.switch_cpus_1.int_regfile_writes     219061026                       # number of integer regfile writes
system.switch_cpus_1.fp_regfile_reads        26321908                       # number of floating regfile reads
system.switch_cpus_1.fp_regfile_writes       19796092                       # number of floating regfile writes
system.switch_cpus_1.misc_regfile_reads        925555                       # number of misc regfile reads
system.switch_cpus_1.misc_regfile_writes       752604                       # number of misc regfile writes
system.tol3bus.snoop_filter.tot_requests     44293652                       # Total number of requests made to the snoop filter.
system.tol3bus.snoop_filter.hit_single_requests     22147139                       # Number of requests hitting in the snoop filter with a single holder of the requested data.
system.tol3bus.snoop_filter.hit_multi_requests            0                       # Number of requests hitting in the snoop filter with multiple (>1) holders of the requested data.
system.tol3bus.snoop_filter.tot_snoops         307368                       # Total number of snoops made to the snoop filter.
system.tol3bus.snoop_filter.hit_single_snoops       307368                       # Number of snoops hitting in the snoop filter with a single holder of the requested data.
system.tol3bus.snoop_filter.hit_multi_snoops            0                       # Number of snoops hitting in the snoop filter with multiple (>1) holders of the requested data.
system.tol3bus.pwrStateResidencyTicks::UNDEFINED 129872764117782                       # Cumulative time (in ticks) in various power states
system.tol3bus.trans_dist::ReadResp          18862053                       # Transaction distribution
system.tol3bus.trans_dist::WritebackDirty     17108646                       # Transaction distribution
system.tol3bus.trans_dist::CleanEvict        20027217                       # Transaction distribution
system.tol3bus.trans_dist::UpgradeReq            1865                       # Transaction distribution
system.tol3bus.trans_dist::UpgradeResp           1865                       # Transaction distribution
system.tol3bus.trans_dist::ReadExReq          3284460                       # Transaction distribution
system.tol3bus.trans_dist::ReadExResp         3284460                       # Transaction distribution
system.tol3bus.trans_dist::ReadSharedReq     18862053                       # Transaction distribution
system.tol3bus.pkt_count_system.cpu.l2.mem_side::system.l3.cpu_side     66442030                       # Packet count per connected master and slave (bytes)
system.tol3bus.pkt_size_system.cpu.l2.mem_side::system.l3.cpu_side   2110734464                       # Cumulative packet size per connected master and slave (bytes)
system.tol3bus.snoops                        14990589                       # Total snoops (count)
system.tol3bus.snoopTraffic                 401595712                       # Total snoop traffic (bytes)
system.tol3bus.snoop_fanout::samples         37138967                       # Request fanout histogram
system.tol3bus.snoop_fanout::mean            0.008276                       # Request fanout histogram
system.tol3bus.snoop_fanout::stdev           0.090596                       # Request fanout histogram
system.tol3bus.snoop_fanout::underflows             0      0.00%      0.00% # Request fanout histogram
system.tol3bus.snoop_fanout::0               36831599     99.17%     99.17% # Request fanout histogram
system.tol3bus.snoop_fanout::1                 307368      0.83%    100.00% # Request fanout histogram
system.tol3bus.snoop_fanout::overflows              0      0.00%    100.00% # Request fanout histogram
system.tol3bus.snoop_fanout::min_value              0                       # Request fanout histogram
system.tol3bus.snoop_fanout::max_value              1                       # Request fanout histogram
system.tol3bus.snoop_fanout::total           37138967                       # Request fanout histogram
system.tol3bus.reqLayer0.occupancy        18357412545                       # Layer occupancy (ticks)
system.tol3bus.reqLayer0.utilization              0.6                       # Layer utilization (%)
system.tol3bus.respLayer0.occupancy       14750198703                       # Layer occupancy (ticks)
system.tol3bus.respLayer0.utilization             0.5                       # Layer utilization (%)

---------- End Simulation Statistics   ----------
