
---------- Begin Simulation Statistics ----------
sim_seconds                                  1.781793                       # Number of seconds simulated
sim_ticks                                1781793360729                       # Number of ticks simulated
final_tick                               75051947161431                       # Number of ticks from beginning of simulation (restored from checkpoints and never reset)
sim_freq                                 1000000000000                       # Frequency of simulated ticks
host_inst_rate                                 355020                       # Simulator instruction rate (inst/s)
host_op_rate                                   355020                       # Simulator op (including micro ops) rate (op/s)
host_tick_rate                              527144059                       # Simulator tick rate (ticks/s)
host_mem_usage                                2403912                       # Number of bytes of host memory used
host_seconds                                  3380.09                       # Real time elapsed on the host
sim_insts                                  1200000010                       # Number of instructions simulated
sim_ops                                    1200000010                       # Number of ops (including micro ops) simulated
system.voltage_domain.voltage                       1                       # Voltage in Volts
system.clk_domain.clock                          1000                       # Clock period in ticks
system.mem_ctrls0.pwrStateResidencyTicks::UNDEFINED 75051947161431                       # Cumulative time (in ticks) in various power states
system.mem_ctrls0.bytes_read::cpu.inst            128                       # Number of bytes read from this memory
system.mem_ctrls0.bytes_read::cpu.data            192                       # Number of bytes read from this memory
system.mem_ctrls0.bytes_read::switch_cpus.inst        43968                       # Number of bytes read from this memory
system.mem_ctrls0.bytes_read::switch_cpus.data    234239616                       # Number of bytes read from this memory
system.mem_ctrls0.bytes_read::switch_cpus_1.inst         3392                       # Number of bytes read from this memory
system.mem_ctrls0.bytes_read::switch_cpus_1.data     41250496                       # Number of bytes read from this memory
system.mem_ctrls0.bytes_read::total         275537792                       # Number of bytes read from this memory
system.mem_ctrls0.bytes_inst_read::cpu.inst          128                       # Number of instructions bytes read from this memory
system.mem_ctrls0.bytes_inst_read::switch_cpus.inst        43968                       # Number of instructions bytes read from this memory
system.mem_ctrls0.bytes_inst_read::switch_cpus_1.inst         3392                       # Number of instructions bytes read from this memory
system.mem_ctrls0.bytes_inst_read::total        47488                       # Number of instructions bytes read from this memory
system.mem_ctrls0.bytes_written::writebacks     88056256                       # Number of bytes written to this memory
system.mem_ctrls0.bytes_written::total       88056256                       # Number of bytes written to this memory
system.mem_ctrls0.num_reads::cpu.inst               2                       # Number of read requests responded to by this memory
system.mem_ctrls0.num_reads::cpu.data               3                       # Number of read requests responded to by this memory
system.mem_ctrls0.num_reads::switch_cpus.inst          687                       # Number of read requests responded to by this memory
system.mem_ctrls0.num_reads::switch_cpus.data      3659994                       # Number of read requests responded to by this memory
system.mem_ctrls0.num_reads::switch_cpus_1.inst           53                       # Number of read requests responded to by this memory
system.mem_ctrls0.num_reads::switch_cpus_1.data       644539                       # Number of read requests responded to by this memory
system.mem_ctrls0.num_reads::total            4305278                       # Number of read requests responded to by this memory
system.mem_ctrls0.num_writes::writebacks      1375879                       # Number of write requests responded to by this memory
system.mem_ctrls0.num_writes::total           1375879                       # Number of write requests responded to by this memory
system.mem_ctrls0.bw_read::cpu.inst                72                       # Total read bandwidth from this memory (bytes/s)
system.mem_ctrls0.bw_read::cpu.data               108                       # Total read bandwidth from this memory (bytes/s)
system.mem_ctrls0.bw_read::switch_cpus.inst        24676                       # Total read bandwidth from this memory (bytes/s)
system.mem_ctrls0.bw_read::switch_cpus.data    131462840                       # Total read bandwidth from this memory (bytes/s)
system.mem_ctrls0.bw_read::switch_cpus_1.inst         1904                       # Total read bandwidth from this memory (bytes/s)
system.mem_ctrls0.bw_read::switch_cpus_1.data     23151111                       # Total read bandwidth from this memory (bytes/s)
system.mem_ctrls0.bw_read::total            154640711                       # Total read bandwidth from this memory (bytes/s)
system.mem_ctrls0.bw_inst_read::cpu.inst           72                       # Instruction read bandwidth from this memory (bytes/s)
system.mem_ctrls0.bw_inst_read::switch_cpus.inst        24676                       # Instruction read bandwidth from this memory (bytes/s)
system.mem_ctrls0.bw_inst_read::switch_cpus_1.inst         1904                       # Instruction read bandwidth from this memory (bytes/s)
system.mem_ctrls0.bw_inst_read::total           26652                       # Instruction read bandwidth from this memory (bytes/s)
system.mem_ctrls0.bw_write::writebacks       49420016                       # Write bandwidth from this memory (bytes/s)
system.mem_ctrls0.bw_write::total            49420016                       # Write bandwidth from this memory (bytes/s)
system.mem_ctrls0.bw_total::writebacks       49420016                       # Total bandwidth to/from this memory (bytes/s)
system.mem_ctrls0.bw_total::cpu.inst               72                       # Total bandwidth to/from this memory (bytes/s)
system.mem_ctrls0.bw_total::cpu.data              108                       # Total bandwidth to/from this memory (bytes/s)
system.mem_ctrls0.bw_total::switch_cpus.inst        24676                       # Total bandwidth to/from this memory (bytes/s)
system.mem_ctrls0.bw_total::switch_cpus.data    131462840                       # Total bandwidth to/from this memory (bytes/s)
system.mem_ctrls0.bw_total::switch_cpus_1.inst         1904                       # Total bandwidth to/from this memory (bytes/s)
system.mem_ctrls0.bw_total::switch_cpus_1.data     23151111                       # Total bandwidth to/from this memory (bytes/s)
system.mem_ctrls0.bw_total::total           204060727                       # Total bandwidth to/from this memory (bytes/s)
system.mem_ctrls0.readReqs                    4305280                       # Number of read requests accepted
system.mem_ctrls0.writeReqs                   1375879                       # Number of write requests accepted
system.mem_ctrls0.readBursts                  4305280                       # Number of DRAM read bursts, including those serviced by the write queue
system.mem_ctrls0.writeBursts                 1375879                       # Number of DRAM write bursts, including those merged in the write queue
system.mem_ctrls0.bytesReadDRAM             275518464                       # Total number of bytes read from DRAM
system.mem_ctrls0.bytesReadWrQ                  19456                       # Total number of bytes read from write queue
system.mem_ctrls0.bytesWritten               88054848                       # Total number of bytes written to DRAM
system.mem_ctrls0.bytesReadSys              275537920                       # Total read bytes from the system interface side
system.mem_ctrls0.bytesWrittenSys            88056256                       # Total written bytes from the system interface side
system.mem_ctrls0.servicedByWrQ                   304                       # Number of DRAM read bursts serviced by the write queue
system.mem_ctrls0.mergedWrBursts                    0                       # Number of DRAM write bursts merged with an existing one
system.mem_ctrls0.neitherReadNorWriteReqs            0                       # Number of requests that are neither read nor write
system.mem_ctrls0.perBankRdBursts::0           275115                       # Per bank write bursts
system.mem_ctrls0.perBankRdBursts::1           271462                       # Per bank write bursts
system.mem_ctrls0.perBankRdBursts::2           269246                       # Per bank write bursts
system.mem_ctrls0.perBankRdBursts::3           269751                       # Per bank write bursts
system.mem_ctrls0.perBankRdBursts::4           268773                       # Per bank write bursts
system.mem_ctrls0.perBankRdBursts::5           270353                       # Per bank write bursts
system.mem_ctrls0.perBankRdBursts::6           270682                       # Per bank write bursts
system.mem_ctrls0.perBankRdBursts::7           272027                       # Per bank write bursts
system.mem_ctrls0.perBankRdBursts::8           273214                       # Per bank write bursts
system.mem_ctrls0.perBankRdBursts::9           270402                       # Per bank write bursts
system.mem_ctrls0.perBankRdBursts::10          265218                       # Per bank write bursts
system.mem_ctrls0.perBankRdBursts::11          261880                       # Per bank write bursts
system.mem_ctrls0.perBankRdBursts::12          260925                       # Per bank write bursts
system.mem_ctrls0.perBankRdBursts::13          265040                       # Per bank write bursts
system.mem_ctrls0.perBankRdBursts::14          269925                       # Per bank write bursts
system.mem_ctrls0.perBankRdBursts::15          270963                       # Per bank write bursts
system.mem_ctrls0.perBankWrBursts::0            88688                       # Per bank write bursts
system.mem_ctrls0.perBankWrBursts::1            87194                       # Per bank write bursts
system.mem_ctrls0.perBankWrBursts::2            86683                       # Per bank write bursts
system.mem_ctrls0.perBankWrBursts::3            87698                       # Per bank write bursts
system.mem_ctrls0.perBankWrBursts::4            88095                       # Per bank write bursts
system.mem_ctrls0.perBankWrBursts::5            88298                       # Per bank write bursts
system.mem_ctrls0.perBankWrBursts::6            85644                       # Per bank write bursts
system.mem_ctrls0.perBankWrBursts::7            84921                       # Per bank write bursts
system.mem_ctrls0.perBankWrBursts::8            85376                       # Per bank write bursts
system.mem_ctrls0.perBankWrBursts::9            85573                       # Per bank write bursts
system.mem_ctrls0.perBankWrBursts::10           84821                       # Per bank write bursts
system.mem_ctrls0.perBankWrBursts::11           83427                       # Per bank write bursts
system.mem_ctrls0.perBankWrBursts::12           82636                       # Per bank write bursts
system.mem_ctrls0.perBankWrBursts::13           83807                       # Per bank write bursts
system.mem_ctrls0.perBankWrBursts::14           86304                       # Per bank write bursts
system.mem_ctrls0.perBankWrBursts::15           86692                       # Per bank write bursts
system.mem_ctrls0.numRdRetry                        0                       # Number of times read queue was full causing retry
system.mem_ctrls0.numWrRetry                        0                       # Number of times write queue was full causing retry
system.mem_ctrls0.totGap                 1781793246408                       # Total gap between requests
system.mem_ctrls0.readPktSize::0                    0                       # Read request sizes (log2)
system.mem_ctrls0.readPktSize::1                    0                       # Read request sizes (log2)
system.mem_ctrls0.readPktSize::2                    0                       # Read request sizes (log2)
system.mem_ctrls0.readPktSize::3                    0                       # Read request sizes (log2)
system.mem_ctrls0.readPktSize::4                    0                       # Read request sizes (log2)
system.mem_ctrls0.readPktSize::5                    0                       # Read request sizes (log2)
system.mem_ctrls0.readPktSize::6              4305280                       # Read request sizes (log2)
system.mem_ctrls0.writePktSize::0                   0                       # Write request sizes (log2)
system.mem_ctrls0.writePktSize::1                   0                       # Write request sizes (log2)
system.mem_ctrls0.writePktSize::2                   0                       # Write request sizes (log2)
system.mem_ctrls0.writePktSize::3                   0                       # Write request sizes (log2)
system.mem_ctrls0.writePktSize::4                   0                       # Write request sizes (log2)
system.mem_ctrls0.writePktSize::5                   0                       # Write request sizes (log2)
system.mem_ctrls0.writePktSize::6             1375879                       # Write request sizes (log2)
system.mem_ctrls0.rdQLenPdf::0                4105039                       # What read queue length does an incoming req see
system.mem_ctrls0.rdQLenPdf::1                 159137                       # What read queue length does an incoming req see
system.mem_ctrls0.rdQLenPdf::2                  37814                       # What read queue length does an incoming req see
system.mem_ctrls0.rdQLenPdf::3                   2985                       # What read queue length does an incoming req see
system.mem_ctrls0.rdQLenPdf::4                      1                       # What read queue length does an incoming req see
system.mem_ctrls0.rdQLenPdf::5                      0                       # What read queue length does an incoming req see
system.mem_ctrls0.rdQLenPdf::6                      0                       # What read queue length does an incoming req see
system.mem_ctrls0.rdQLenPdf::7                      0                       # What read queue length does an incoming req see
system.mem_ctrls0.rdQLenPdf::8                      0                       # What read queue length does an incoming req see
system.mem_ctrls0.rdQLenPdf::9                      0                       # What read queue length does an incoming req see
system.mem_ctrls0.rdQLenPdf::10                     0                       # What read queue length does an incoming req see
system.mem_ctrls0.rdQLenPdf::11                     0                       # What read queue length does an incoming req see
system.mem_ctrls0.rdQLenPdf::12                     0                       # What read queue length does an incoming req see
system.mem_ctrls0.rdQLenPdf::13                     0                       # What read queue length does an incoming req see
system.mem_ctrls0.rdQLenPdf::14                     0                       # What read queue length does an incoming req see
system.mem_ctrls0.rdQLenPdf::15                     0                       # What read queue length does an incoming req see
system.mem_ctrls0.rdQLenPdf::16                     0                       # What read queue length does an incoming req see
system.mem_ctrls0.rdQLenPdf::17                     0                       # What read queue length does an incoming req see
system.mem_ctrls0.rdQLenPdf::18                     0                       # What read queue length does an incoming req see
system.mem_ctrls0.rdQLenPdf::19                     0                       # What read queue length does an incoming req see
system.mem_ctrls0.rdQLenPdf::20                     0                       # What read queue length does an incoming req see
system.mem_ctrls0.rdQLenPdf::21                     0                       # What read queue length does an incoming req see
system.mem_ctrls0.rdQLenPdf::22                     0                       # What read queue length does an incoming req see
system.mem_ctrls0.rdQLenPdf::23                     0                       # What read queue length does an incoming req see
system.mem_ctrls0.rdQLenPdf::24                     0                       # What read queue length does an incoming req see
system.mem_ctrls0.rdQLenPdf::25                     0                       # What read queue length does an incoming req see
system.mem_ctrls0.rdQLenPdf::26                     0                       # What read queue length does an incoming req see
system.mem_ctrls0.rdQLenPdf::27                     0                       # What read queue length does an incoming req see
system.mem_ctrls0.rdQLenPdf::28                     0                       # What read queue length does an incoming req see
system.mem_ctrls0.rdQLenPdf::29                     0                       # What read queue length does an incoming req see
system.mem_ctrls0.rdQLenPdf::30                     0                       # What read queue length does an incoming req see
system.mem_ctrls0.rdQLenPdf::31                     0                       # What read queue length does an incoming req see
system.mem_ctrls0.wrQLenPdf::0                      2                       # What write queue length does an incoming req see
system.mem_ctrls0.wrQLenPdf::1                      2                       # What write queue length does an incoming req see
system.mem_ctrls0.wrQLenPdf::2                      2                       # What write queue length does an incoming req see
system.mem_ctrls0.wrQLenPdf::3                      2                       # What write queue length does an incoming req see
system.mem_ctrls0.wrQLenPdf::4                      2                       # What write queue length does an incoming req see
system.mem_ctrls0.wrQLenPdf::5                      2                       # What write queue length does an incoming req see
system.mem_ctrls0.wrQLenPdf::6                      2                       # What write queue length does an incoming req see
system.mem_ctrls0.wrQLenPdf::7                      2                       # What write queue length does an incoming req see
system.mem_ctrls0.wrQLenPdf::8                      2                       # What write queue length does an incoming req see
system.mem_ctrls0.wrQLenPdf::9                      2                       # What write queue length does an incoming req see
system.mem_ctrls0.wrQLenPdf::10                     2                       # What write queue length does an incoming req see
system.mem_ctrls0.wrQLenPdf::11                     2                       # What write queue length does an incoming req see
system.mem_ctrls0.wrQLenPdf::12                     2                       # What write queue length does an incoming req see
system.mem_ctrls0.wrQLenPdf::13                     2                       # What write queue length does an incoming req see
system.mem_ctrls0.wrQLenPdf::14                     2                       # What write queue length does an incoming req see
system.mem_ctrls0.wrQLenPdf::15                 41884                       # What write queue length does an incoming req see
system.mem_ctrls0.wrQLenPdf::16                 43719                       # What write queue length does an incoming req see
system.mem_ctrls0.wrQLenPdf::17                 76047                       # What write queue length does an incoming req see
system.mem_ctrls0.wrQLenPdf::18                 80100                       # What write queue length does an incoming req see
system.mem_ctrls0.wrQLenPdf::19                 80877                       # What write queue length does an incoming req see
system.mem_ctrls0.wrQLenPdf::20                 80925                       # What write queue length does an incoming req see
system.mem_ctrls0.wrQLenPdf::21                 80948                       # What write queue length does an incoming req see
system.mem_ctrls0.wrQLenPdf::22                 80984                       # What write queue length does an incoming req see
system.mem_ctrls0.wrQLenPdf::23                 80904                       # What write queue length does an incoming req see
system.mem_ctrls0.wrQLenPdf::24                 81005                       # What write queue length does an incoming req see
system.mem_ctrls0.wrQLenPdf::25                 81025                       # What write queue length does an incoming req see
system.mem_ctrls0.wrQLenPdf::26                 81061                       # What write queue length does an incoming req see
system.mem_ctrls0.wrQLenPdf::27                 81103                       # What write queue length does an incoming req see
system.mem_ctrls0.wrQLenPdf::28                 81353                       # What write queue length does an incoming req see
system.mem_ctrls0.wrQLenPdf::29                 81559                       # What write queue length does an incoming req see
system.mem_ctrls0.wrQLenPdf::30                 81118                       # What write queue length does an incoming req see
system.mem_ctrls0.wrQLenPdf::31                 80610                       # What write queue length does an incoming req see
system.mem_ctrls0.wrQLenPdf::32                 80506                       # What write queue length does an incoming req see
system.mem_ctrls0.wrQLenPdf::33                   105                       # What write queue length does an incoming req see
system.mem_ctrls0.wrQLenPdf::34                    15                       # What write queue length does an incoming req see
system.mem_ctrls0.wrQLenPdf::35                     1                       # What write queue length does an incoming req see
system.mem_ctrls0.wrQLenPdf::36                     0                       # What write queue length does an incoming req see
system.mem_ctrls0.wrQLenPdf::37                     0                       # What write queue length does an incoming req see
system.mem_ctrls0.wrQLenPdf::38                     0                       # What write queue length does an incoming req see
system.mem_ctrls0.wrQLenPdf::39                     0                       # What write queue length does an incoming req see
system.mem_ctrls0.wrQLenPdf::40                     0                       # What write queue length does an incoming req see
system.mem_ctrls0.wrQLenPdf::41                     0                       # What write queue length does an incoming req see
system.mem_ctrls0.wrQLenPdf::42                     0                       # What write queue length does an incoming req see
system.mem_ctrls0.wrQLenPdf::43                     0                       # What write queue length does an incoming req see
system.mem_ctrls0.wrQLenPdf::44                     0                       # What write queue length does an incoming req see
system.mem_ctrls0.wrQLenPdf::45                     0                       # What write queue length does an incoming req see
system.mem_ctrls0.wrQLenPdf::46                     0                       # What write queue length does an incoming req see
system.mem_ctrls0.wrQLenPdf::47                     0                       # What write queue length does an incoming req see
system.mem_ctrls0.wrQLenPdf::48                     0                       # What write queue length does an incoming req see
system.mem_ctrls0.wrQLenPdf::49                     0                       # What write queue length does an incoming req see
system.mem_ctrls0.wrQLenPdf::50                     0                       # What write queue length does an incoming req see
system.mem_ctrls0.wrQLenPdf::51                     0                       # What write queue length does an incoming req see
system.mem_ctrls0.wrQLenPdf::52                     0                       # What write queue length does an incoming req see
system.mem_ctrls0.wrQLenPdf::53                     0                       # What write queue length does an incoming req see
system.mem_ctrls0.wrQLenPdf::54                     0                       # What write queue length does an incoming req see
system.mem_ctrls0.wrQLenPdf::55                     0                       # What write queue length does an incoming req see
system.mem_ctrls0.wrQLenPdf::56                     0                       # What write queue length does an incoming req see
system.mem_ctrls0.wrQLenPdf::57                     0                       # What write queue length does an incoming req see
system.mem_ctrls0.wrQLenPdf::58                     0                       # What write queue length does an incoming req see
system.mem_ctrls0.wrQLenPdf::59                     0                       # What write queue length does an incoming req see
system.mem_ctrls0.wrQLenPdf::60                     0                       # What write queue length does an incoming req see
system.mem_ctrls0.wrQLenPdf::61                     0                       # What write queue length does an incoming req see
system.mem_ctrls0.wrQLenPdf::62                     0                       # What write queue length does an incoming req see
system.mem_ctrls0.wrQLenPdf::63                     0                       # What write queue length does an incoming req see
system.mem_ctrls0.bytesPerActivate::samples      2454373                       # Bytes accessed per row activation
system.mem_ctrls0.bytesPerActivate::mean   148.131955                       # Bytes accessed per row activation
system.mem_ctrls0.bytesPerActivate::gmean   109.784041                       # Bytes accessed per row activation
system.mem_ctrls0.bytesPerActivate::stdev   153.562344                       # Bytes accessed per row activation
system.mem_ctrls0.bytesPerActivate::0-127      1282967     52.27%     52.27% # Bytes accessed per row activation
system.mem_ctrls0.bytesPerActivate::128-255       806123     32.84%     85.12% # Bytes accessed per row activation
system.mem_ctrls0.bytesPerActivate::256-383       145778      5.94%     91.06% # Bytes accessed per row activation
system.mem_ctrls0.bytesPerActivate::384-511        75440      3.07%     94.13% # Bytes accessed per row activation
system.mem_ctrls0.bytesPerActivate::512-639        69328      2.82%     96.95% # Bytes accessed per row activation
system.mem_ctrls0.bytesPerActivate::640-767        31419      1.28%     98.24% # Bytes accessed per row activation
system.mem_ctrls0.bytesPerActivate::768-895        25335      1.03%     99.27% # Bytes accessed per row activation
system.mem_ctrls0.bytesPerActivate::896-1023         9272      0.38%     99.65% # Bytes accessed per row activation
system.mem_ctrls0.bytesPerActivate::1024-1151         8711      0.35%    100.00% # Bytes accessed per row activation
system.mem_ctrls0.bytesPerActivate::total      2454373                       # Bytes accessed per row activation
system.mem_ctrls0.rdPerTurnAround::samples        80415                       # Reads before turning the bus around for writes
system.mem_ctrls0.rdPerTurnAround::mean     53.533992                       # Reads before turning the bus around for writes
system.mem_ctrls0.rdPerTurnAround::gmean    48.047404                       # Reads before turning the bus around for writes
system.mem_ctrls0.rdPerTurnAround::stdev   113.894366                       # Reads before turning the bus around for writes
system.mem_ctrls0.rdPerTurnAround::0-1023        80414    100.00%    100.00% # Reads before turning the bus around for writes
system.mem_ctrls0.rdPerTurnAround::30720-31743            1      0.00%    100.00% # Reads before turning the bus around for writes
system.mem_ctrls0.rdPerTurnAround::total        80415                       # Reads before turning the bus around for writes
system.mem_ctrls0.wrPerTurnAround::samples        80415                       # Writes before turning the bus around for reads
system.mem_ctrls0.wrPerTurnAround::mean     17.109457                       # Writes before turning the bus around for reads
system.mem_ctrls0.wrPerTurnAround::gmean    17.076921                       # Writes before turning the bus around for reads
system.mem_ctrls0.wrPerTurnAround::stdev     1.055505                       # Writes before turning the bus around for reads
system.mem_ctrls0.wrPerTurnAround::16           36912     45.90%     45.90% # Writes before turning the bus around for reads
system.mem_ctrls0.wrPerTurnAround::17            1395      1.73%     47.64% # Writes before turning the bus around for reads
system.mem_ctrls0.wrPerTurnAround::18           38812     48.26%     95.90% # Writes before turning the bus around for reads
system.mem_ctrls0.wrPerTurnAround::19            3029      3.77%     99.67% # Writes before turning the bus around for reads
system.mem_ctrls0.wrPerTurnAround::20             228      0.28%     99.95% # Writes before turning the bus around for reads
system.mem_ctrls0.wrPerTurnAround::21              35      0.04%    100.00% # Writes before turning the bus around for reads
system.mem_ctrls0.wrPerTurnAround::22               4      0.00%    100.00% # Writes before turning the bus around for reads
system.mem_ctrls0.wrPerTurnAround::total        80415                       # Writes before turning the bus around for reads
system.mem_ctrls0.totQLat                 93447504719                       # Total ticks spent queuing
system.mem_ctrls0.totMemAccLat           174165804719                       # Total ticks spent from burst creation until serviced by the DRAM
system.mem_ctrls0.totBusLat               21524880000                       # Total ticks spent in databus transfers
system.mem_ctrls0.avgQLat                    21706.86                       # Average queueing delay per DRAM burst
system.mem_ctrls0.avgBusLat                   5000.00                       # Average bus latency per DRAM burst
system.mem_ctrls0.avgMemAccLat               40456.86                       # Average memory access latency per DRAM burst
system.mem_ctrls0.avgRdBW                      154.63                       # Average DRAM read bandwidth in MiByte/s
system.mem_ctrls0.avgWrBW                       49.42                       # Average achieved write bandwidth in MiByte/s
system.mem_ctrls0.avgRdBWSys                   154.64                       # Average system read bandwidth in MiByte/s
system.mem_ctrls0.avgWrBWSys                    49.42                       # Average system write bandwidth in MiByte/s
system.mem_ctrls0.peakBW                     12800.00                       # Theoretical peak bandwidth in MiByte/s
system.mem_ctrls0.busUtil                        1.59                       # Data bus utilization in percentage
system.mem_ctrls0.busUtilRead                    1.21                       # Data bus utilization in percentage for reads
system.mem_ctrls0.busUtilWrite                   0.39                       # Data bus utilization in percentage for writes
system.mem_ctrls0.avgRdQLen                      1.02                       # Average read queue length when enqueuing
system.mem_ctrls0.avgWrQLen                     24.55                       # Average write queue length when enqueuing
system.mem_ctrls0.readRowHits                 2701284                       # Number of row buffer hits during reads
system.mem_ctrls0.writeRowHits                 525165                       # Number of row buffer hits during writes
system.mem_ctrls0.readRowHitRate                62.75                       # Row buffer hit rate for reads
system.mem_ctrls0.writeRowHitRate               38.17                       # Row buffer hit rate for writes
system.mem_ctrls0.avgGap                    313632.00                       # Average gap between requests
system.mem_ctrls0.pageHitRate                   56.80                       # Row buffer hit rate, read and write combined
system.mem_ctrls0_0.actEnergy              8839484220                       # Energy for activate commands per rank (pJ)
system.mem_ctrls0_0.preEnergy              4698270720                       # Energy for precharge commands per rank (pJ)
system.mem_ctrls0_0.readEnergy            15475300260                       # Energy for read commands per rank (pJ)
system.mem_ctrls0_0.writeEnergy            3639493620                       # Energy for write commands per rank (pJ)
system.mem_ctrls0_0.refreshEnergy        138874220160.000031                       # Energy for refresh commands per rank (pJ)
system.mem_ctrls0_0.actBackEnergy         90915098610                       # Energy for active background per rank (pJ)
system.mem_ctrls0_0.preBackEnergy          5022206400                       # Energy for precharge background per rank (pJ)
system.mem_ctrls0_0.actPowerDownEnergy   531659695560                       # Energy for active power-down per rank (pJ)
system.mem_ctrls0_0.prePowerDownEnergy   105881061120                       # Energy for precharge power-down per rank (pJ)
system.mem_ctrls0_0.selfRefreshEnergy     38663199030                       # Energy for self refresh per rank (pJ)
system.mem_ctrls0_0.totalEnergy          943703384340                       # Total energy per rank (pJ)
system.mem_ctrls0_0.averagePower           529.636824                       # Core power per rank (mW)
system.mem_ctrls0_0.totalIdleTime        1569262448234                       # Total Idle time Per DRAM Rank
system.mem_ctrls0_0.memoryStateTime::IDLE   5267330760                       # Time in different power states
system.mem_ctrls0_0.memoryStateTime::REF  58836850000                       # Time in different power states
system.mem_ctrls0_0.memoryStateTime::SREF 127608521221                       # Time in different power states
system.mem_ctrls0_0.memoryStateTime::PRE_PDN 275730326059                       # Time in different power states
system.mem_ctrls0_0.memoryStateTime::ACT 148426731735                       # Time in different power states
system.mem_ctrls0_0.memoryStateTime::ACT_PDN 1165923600954                       # Time in different power states
system.mem_ctrls0_1.actEnergy              8684817540                       # Energy for activate commands per rank (pJ)
system.mem_ctrls0_1.preEnergy              4616074815                       # Energy for precharge commands per rank (pJ)
system.mem_ctrls0_1.readEnergy            15262221240                       # Energy for read commands per rank (pJ)
system.mem_ctrls0_1.writeEnergy            3542479920                       # Energy for write commands per rank (pJ)
system.mem_ctrls0_1.refreshEnergy        138370830000.000031                       # Energy for refresh commands per rank (pJ)
system.mem_ctrls0_1.actBackEnergy         91173442560                       # Energy for active background per rank (pJ)
system.mem_ctrls0_1.preBackEnergy          5047578240                       # Energy for precharge background per rank (pJ)
system.mem_ctrls0_1.actPowerDownEnergy   527328155550                       # Energy for active power-down per rank (pJ)
system.mem_ctrls0_1.prePowerDownEnergy   105988621920                       # Energy for precharge power-down per rank (pJ)
system.mem_ctrls0_1.selfRefreshEnergy     40892364135                       # Energy for self refresh per rank (pJ)
system.mem_ctrls0_1.totalEnergy          940940637210                       # Total energy per rank (pJ)
system.mem_ctrls0_1.averagePower           528.086283                       # Core power per rank (mW)
system.mem_ctrls0_1.totalIdleTime        1568639762749                       # Total Idle time Per DRAM Rank
system.mem_ctrls0_1.memoryStateTime::IDLE   5371489316                       # Time in different power states
system.mem_ctrls0_1.memoryStateTime::REF  58625776000                       # Time in different power states
system.mem_ctrls0_1.memoryStateTime::SREF 136197704999                       # Time in different power states
system.mem_ctrls0_1.memoryStateTime::PRE_PDN 276012392192                       # Time in different power states
system.mem_ctrls0_1.memoryStateTime::ACT 149156332664                       # Time in different power states
system.mem_ctrls0_1.memoryStateTime::ACT_PDN 1156429665558                       # Time in different power states
system.mem_ctrls1.pwrStateResidencyTicks::UNDEFINED 75051947161431                       # Cumulative time (in ticks) in various power states
system.mem_ctrls1.bytes_read::cpu.inst            128                       # Number of bytes read from this memory
system.mem_ctrls1.bytes_read::cpu.data            192                       # Number of bytes read from this memory
system.mem_ctrls1.bytes_read::switch_cpus.inst        43840                       # Number of bytes read from this memory
system.mem_ctrls1.bytes_read::switch_cpus.data    234312832                       # Number of bytes read from this memory
system.mem_ctrls1.bytes_read::switch_cpus_1.inst         3200                       # Number of bytes read from this memory
system.mem_ctrls1.bytes_read::switch_cpus_1.data     41281152                       # Number of bytes read from this memory
system.mem_ctrls1.bytes_read::total         275641344                       # Number of bytes read from this memory
system.mem_ctrls1.bytes_inst_read::cpu.inst          128                       # Number of instructions bytes read from this memory
system.mem_ctrls1.bytes_inst_read::switch_cpus.inst        43840                       # Number of instructions bytes read from this memory
system.mem_ctrls1.bytes_inst_read::switch_cpus_1.inst         3200                       # Number of instructions bytes read from this memory
system.mem_ctrls1.bytes_inst_read::total        47168                       # Number of instructions bytes read from this memory
system.mem_ctrls1.bytes_written::writebacks     88081280                       # Number of bytes written to this memory
system.mem_ctrls1.bytes_written::total       88081280                       # Number of bytes written to this memory
system.mem_ctrls1.num_reads::cpu.inst               2                       # Number of read requests responded to by this memory
system.mem_ctrls1.num_reads::cpu.data               3                       # Number of read requests responded to by this memory
system.mem_ctrls1.num_reads::switch_cpus.inst          685                       # Number of read requests responded to by this memory
system.mem_ctrls1.num_reads::switch_cpus.data      3661138                       # Number of read requests responded to by this memory
system.mem_ctrls1.num_reads::switch_cpus_1.inst           50                       # Number of read requests responded to by this memory
system.mem_ctrls1.num_reads::switch_cpus_1.data       645018                       # Number of read requests responded to by this memory
system.mem_ctrls1.num_reads::total            4306896                       # Number of read requests responded to by this memory
system.mem_ctrls1.num_writes::writebacks      1376270                       # Number of write requests responded to by this memory
system.mem_ctrls1.num_writes::total           1376270                       # Number of write requests responded to by this memory
system.mem_ctrls1.bw_read::cpu.inst                72                       # Total read bandwidth from this memory (bytes/s)
system.mem_ctrls1.bw_read::cpu.data               108                       # Total read bandwidth from this memory (bytes/s)
system.mem_ctrls1.bw_read::switch_cpus.inst        24604                       # Total read bandwidth from this memory (bytes/s)
system.mem_ctrls1.bw_read::switch_cpus.data    131503931                       # Total read bandwidth from this memory (bytes/s)
system.mem_ctrls1.bw_read::switch_cpus_1.inst         1796                       # Total read bandwidth from this memory (bytes/s)
system.mem_ctrls1.bw_read::switch_cpus_1.data     23168316                       # Total read bandwidth from this memory (bytes/s)
system.mem_ctrls1.bw_read::total            154698828                       # Total read bandwidth from this memory (bytes/s)
system.mem_ctrls1.bw_inst_read::cpu.inst           72                       # Instruction read bandwidth from this memory (bytes/s)
system.mem_ctrls1.bw_inst_read::switch_cpus.inst        24604                       # Instruction read bandwidth from this memory (bytes/s)
system.mem_ctrls1.bw_inst_read::switch_cpus_1.inst         1796                       # Instruction read bandwidth from this memory (bytes/s)
system.mem_ctrls1.bw_inst_read::total           26472                       # Instruction read bandwidth from this memory (bytes/s)
system.mem_ctrls1.bw_write::writebacks       49434060                       # Write bandwidth from this memory (bytes/s)
system.mem_ctrls1.bw_write::total            49434060                       # Write bandwidth from this memory (bytes/s)
system.mem_ctrls1.bw_total::writebacks       49434060                       # Total bandwidth to/from this memory (bytes/s)
system.mem_ctrls1.bw_total::cpu.inst               72                       # Total bandwidth to/from this memory (bytes/s)
system.mem_ctrls1.bw_total::cpu.data              108                       # Total bandwidth to/from this memory (bytes/s)
system.mem_ctrls1.bw_total::switch_cpus.inst        24604                       # Total bandwidth to/from this memory (bytes/s)
system.mem_ctrls1.bw_total::switch_cpus.data    131503931                       # Total bandwidth to/from this memory (bytes/s)
system.mem_ctrls1.bw_total::switch_cpus_1.inst         1796                       # Total bandwidth to/from this memory (bytes/s)
system.mem_ctrls1.bw_total::switch_cpus_1.data     23168316                       # Total bandwidth to/from this memory (bytes/s)
system.mem_ctrls1.bw_total::total           204132888                       # Total bandwidth to/from this memory (bytes/s)
system.mem_ctrls1.readReqs                    4306896                       # Number of read requests accepted
system.mem_ctrls1.writeReqs                   1376270                       # Number of write requests accepted
system.mem_ctrls1.readBursts                  4306896                       # Number of DRAM read bursts, including those serviced by the write queue
system.mem_ctrls1.writeBursts                 1376270                       # Number of DRAM write bursts, including those merged in the write queue
system.mem_ctrls1.bytesReadDRAM             275620288                       # Total number of bytes read from DRAM
system.mem_ctrls1.bytesReadWrQ                  21056                       # Total number of bytes read from write queue
system.mem_ctrls1.bytesWritten               88079744                       # Total number of bytes written to DRAM
system.mem_ctrls1.bytesReadSys              275641344                       # Total read bytes from the system interface side
system.mem_ctrls1.bytesWrittenSys            88081280                       # Total written bytes from the system interface side
system.mem_ctrls1.servicedByWrQ                   329                       # Number of DRAM read bursts serviced by the write queue
system.mem_ctrls1.mergedWrBursts                    0                       # Number of DRAM write bursts merged with an existing one
system.mem_ctrls1.neitherReadNorWriteReqs            0                       # Number of requests that are neither read nor write
system.mem_ctrls1.perBankRdBursts::0           274904                       # Per bank write bursts
system.mem_ctrls1.perBankRdBursts::1           271857                       # Per bank write bursts
system.mem_ctrls1.perBankRdBursts::2           269561                       # Per bank write bursts
system.mem_ctrls1.perBankRdBursts::3           269834                       # Per bank write bursts
system.mem_ctrls1.perBankRdBursts::4           268595                       # Per bank write bursts
system.mem_ctrls1.perBankRdBursts::5           270655                       # Per bank write bursts
system.mem_ctrls1.perBankRdBursts::6           270800                       # Per bank write bursts
system.mem_ctrls1.perBankRdBursts::7           272237                       # Per bank write bursts
system.mem_ctrls1.perBankRdBursts::8           273312                       # Per bank write bursts
system.mem_ctrls1.perBankRdBursts::9           270764                       # Per bank write bursts
system.mem_ctrls1.perBankRdBursts::10          265610                       # Per bank write bursts
system.mem_ctrls1.perBankRdBursts::11          261952                       # Per bank write bursts
system.mem_ctrls1.perBankRdBursts::12          260869                       # Per bank write bursts
system.mem_ctrls1.perBankRdBursts::13          264503                       # Per bank write bursts
system.mem_ctrls1.perBankRdBursts::14          270193                       # Per bank write bursts
system.mem_ctrls1.perBankRdBursts::15          270921                       # Per bank write bursts
system.mem_ctrls1.perBankWrBursts::0            88613                       # Per bank write bursts
system.mem_ctrls1.perBankWrBursts::1            87294                       # Per bank write bursts
system.mem_ctrls1.perBankWrBursts::2            86775                       # Per bank write bursts
system.mem_ctrls1.perBankWrBursts::3            87681                       # Per bank write bursts
system.mem_ctrls1.perBankWrBursts::4            88092                       # Per bank write bursts
system.mem_ctrls1.perBankWrBursts::5            88297                       # Per bank write bursts
system.mem_ctrls1.perBankWrBursts::6            85629                       # Per bank write bursts
system.mem_ctrls1.perBankWrBursts::7            84951                       # Per bank write bursts
system.mem_ctrls1.perBankWrBursts::8            85409                       # Per bank write bursts
system.mem_ctrls1.perBankWrBursts::9            85632                       # Per bank write bursts
system.mem_ctrls1.perBankWrBursts::10           84863                       # Per bank write bursts
system.mem_ctrls1.perBankWrBursts::11           83485                       # Per bank write bursts
system.mem_ctrls1.perBankWrBursts::12           82674                       # Per bank write bursts
system.mem_ctrls1.perBankWrBursts::13           83813                       # Per bank write bursts
system.mem_ctrls1.perBankWrBursts::14           86269                       # Per bank write bursts
system.mem_ctrls1.perBankWrBursts::15           86769                       # Per bank write bursts
system.mem_ctrls1.numRdRetry                        0                       # Number of times read queue was full causing retry
system.mem_ctrls1.numWrRetry                        0                       # Number of times write queue was full causing retry
system.mem_ctrls1.totGap                 1781793229194                       # Total gap between requests
system.mem_ctrls1.readPktSize::0                    0                       # Read request sizes (log2)
system.mem_ctrls1.readPktSize::1                    0                       # Read request sizes (log2)
system.mem_ctrls1.readPktSize::2                    0                       # Read request sizes (log2)
system.mem_ctrls1.readPktSize::3                    0                       # Read request sizes (log2)
system.mem_ctrls1.readPktSize::4                    0                       # Read request sizes (log2)
system.mem_ctrls1.readPktSize::5                    0                       # Read request sizes (log2)
system.mem_ctrls1.readPktSize::6              4306896                       # Read request sizes (log2)
system.mem_ctrls1.writePktSize::0                   0                       # Write request sizes (log2)
system.mem_ctrls1.writePktSize::1                   0                       # Write request sizes (log2)
system.mem_ctrls1.writePktSize::2                   0                       # Write request sizes (log2)
system.mem_ctrls1.writePktSize::3                   0                       # Write request sizes (log2)
system.mem_ctrls1.writePktSize::4                   0                       # Write request sizes (log2)
system.mem_ctrls1.writePktSize::5                   0                       # Write request sizes (log2)
system.mem_ctrls1.writePktSize::6             1376270                       # Write request sizes (log2)
system.mem_ctrls1.rdQLenPdf::0                4106834                       # What read queue length does an incoming req see
system.mem_ctrls1.rdQLenPdf::1                 159105                       # What read queue length does an incoming req see
system.mem_ctrls1.rdQLenPdf::2                  37684                       # What read queue length does an incoming req see
system.mem_ctrls1.rdQLenPdf::3                   2944                       # What read queue length does an incoming req see
system.mem_ctrls1.rdQLenPdf::4                      0                       # What read queue length does an incoming req see
system.mem_ctrls1.rdQLenPdf::5                      0                       # What read queue length does an incoming req see
system.mem_ctrls1.rdQLenPdf::6                      0                       # What read queue length does an incoming req see
system.mem_ctrls1.rdQLenPdf::7                      0                       # What read queue length does an incoming req see
system.mem_ctrls1.rdQLenPdf::8                      0                       # What read queue length does an incoming req see
system.mem_ctrls1.rdQLenPdf::9                      0                       # What read queue length does an incoming req see
system.mem_ctrls1.rdQLenPdf::10                     0                       # What read queue length does an incoming req see
system.mem_ctrls1.rdQLenPdf::11                     0                       # What read queue length does an incoming req see
system.mem_ctrls1.rdQLenPdf::12                     0                       # What read queue length does an incoming req see
system.mem_ctrls1.rdQLenPdf::13                     0                       # What read queue length does an incoming req see
system.mem_ctrls1.rdQLenPdf::14                     0                       # What read queue length does an incoming req see
system.mem_ctrls1.rdQLenPdf::15                     0                       # What read queue length does an incoming req see
system.mem_ctrls1.rdQLenPdf::16                     0                       # What read queue length does an incoming req see
system.mem_ctrls1.rdQLenPdf::17                     0                       # What read queue length does an incoming req see
system.mem_ctrls1.rdQLenPdf::18                     0                       # What read queue length does an incoming req see
system.mem_ctrls1.rdQLenPdf::19                     0                       # What read queue length does an incoming req see
system.mem_ctrls1.rdQLenPdf::20                     0                       # What read queue length does an incoming req see
system.mem_ctrls1.rdQLenPdf::21                     0                       # What read queue length does an incoming req see
system.mem_ctrls1.rdQLenPdf::22                     0                       # What read queue length does an incoming req see
system.mem_ctrls1.rdQLenPdf::23                     0                       # What read queue length does an incoming req see
system.mem_ctrls1.rdQLenPdf::24                     0                       # What read queue length does an incoming req see
system.mem_ctrls1.rdQLenPdf::25                     0                       # What read queue length does an incoming req see
system.mem_ctrls1.rdQLenPdf::26                     0                       # What read queue length does an incoming req see
system.mem_ctrls1.rdQLenPdf::27                     0                       # What read queue length does an incoming req see
system.mem_ctrls1.rdQLenPdf::28                     0                       # What read queue length does an incoming req see
system.mem_ctrls1.rdQLenPdf::29                     0                       # What read queue length does an incoming req see
system.mem_ctrls1.rdQLenPdf::30                     0                       # What read queue length does an incoming req see
system.mem_ctrls1.rdQLenPdf::31                     0                       # What read queue length does an incoming req see
system.mem_ctrls1.wrQLenPdf::0                      2                       # What write queue length does an incoming req see
system.mem_ctrls1.wrQLenPdf::1                      2                       # What write queue length does an incoming req see
system.mem_ctrls1.wrQLenPdf::2                      2                       # What write queue length does an incoming req see
system.mem_ctrls1.wrQLenPdf::3                      2                       # What write queue length does an incoming req see
system.mem_ctrls1.wrQLenPdf::4                      2                       # What write queue length does an incoming req see
system.mem_ctrls1.wrQLenPdf::5                      2                       # What write queue length does an incoming req see
system.mem_ctrls1.wrQLenPdf::6                      2                       # What write queue length does an incoming req see
system.mem_ctrls1.wrQLenPdf::7                      2                       # What write queue length does an incoming req see
system.mem_ctrls1.wrQLenPdf::8                      2                       # What write queue length does an incoming req see
system.mem_ctrls1.wrQLenPdf::9                      2                       # What write queue length does an incoming req see
system.mem_ctrls1.wrQLenPdf::10                     2                       # What write queue length does an incoming req see
system.mem_ctrls1.wrQLenPdf::11                     2                       # What write queue length does an incoming req see
system.mem_ctrls1.wrQLenPdf::12                     2                       # What write queue length does an incoming req see
system.mem_ctrls1.wrQLenPdf::13                     2                       # What write queue length does an incoming req see
system.mem_ctrls1.wrQLenPdf::14                     2                       # What write queue length does an incoming req see
system.mem_ctrls1.wrQLenPdf::15                 41982                       # What write queue length does an incoming req see
system.mem_ctrls1.wrQLenPdf::16                 43835                       # What write queue length does an incoming req see
system.mem_ctrls1.wrQLenPdf::17                 75992                       # What write queue length does an incoming req see
system.mem_ctrls1.wrQLenPdf::18                 80056                       # What write queue length does an incoming req see
system.mem_ctrls1.wrQLenPdf::19                 80803                       # What write queue length does an incoming req see
system.mem_ctrls1.wrQLenPdf::20                 80969                       # What write queue length does an incoming req see
system.mem_ctrls1.wrQLenPdf::21                 80983                       # What write queue length does an incoming req see
system.mem_ctrls1.wrQLenPdf::22                 80971                       # What write queue length does an incoming req see
system.mem_ctrls1.wrQLenPdf::23                 80977                       # What write queue length does an incoming req see
system.mem_ctrls1.wrQLenPdf::24                 81024                       # What write queue length does an incoming req see
system.mem_ctrls1.wrQLenPdf::25                 81025                       # What write queue length does an incoming req see
system.mem_ctrls1.wrQLenPdf::26                 81056                       # What write queue length does an incoming req see
system.mem_ctrls1.wrQLenPdf::27                 81096                       # What write queue length does an incoming req see
system.mem_ctrls1.wrQLenPdf::28                 81435                       # What write queue length does an incoming req see
system.mem_ctrls1.wrQLenPdf::29                 81635                       # What write queue length does an incoming req see
system.mem_ctrls1.wrQLenPdf::30                 81145                       # What write queue length does an incoming req see
system.mem_ctrls1.wrQLenPdf::31                 80620                       # What write queue length does an incoming req see
system.mem_ctrls1.wrQLenPdf::32                 80530                       # What write queue length does an incoming req see
system.mem_ctrls1.wrQLenPdf::33                    90                       # What write queue length does an incoming req see
system.mem_ctrls1.wrQLenPdf::34                    12                       # What write queue length does an incoming req see
system.mem_ctrls1.wrQLenPdf::35                     3                       # What write queue length does an incoming req see
system.mem_ctrls1.wrQLenPdf::36                     1                       # What write queue length does an incoming req see
system.mem_ctrls1.wrQLenPdf::37                     0                       # What write queue length does an incoming req see
system.mem_ctrls1.wrQLenPdf::38                     0                       # What write queue length does an incoming req see
system.mem_ctrls1.wrQLenPdf::39                     0                       # What write queue length does an incoming req see
system.mem_ctrls1.wrQLenPdf::40                     0                       # What write queue length does an incoming req see
system.mem_ctrls1.wrQLenPdf::41                     0                       # What write queue length does an incoming req see
system.mem_ctrls1.wrQLenPdf::42                     0                       # What write queue length does an incoming req see
system.mem_ctrls1.wrQLenPdf::43                     0                       # What write queue length does an incoming req see
system.mem_ctrls1.wrQLenPdf::44                     0                       # What write queue length does an incoming req see
system.mem_ctrls1.wrQLenPdf::45                     0                       # What write queue length does an incoming req see
system.mem_ctrls1.wrQLenPdf::46                     0                       # What write queue length does an incoming req see
system.mem_ctrls1.wrQLenPdf::47                     0                       # What write queue length does an incoming req see
system.mem_ctrls1.wrQLenPdf::48                     0                       # What write queue length does an incoming req see
system.mem_ctrls1.wrQLenPdf::49                     0                       # What write queue length does an incoming req see
system.mem_ctrls1.wrQLenPdf::50                     0                       # What write queue length does an incoming req see
system.mem_ctrls1.wrQLenPdf::51                     0                       # What write queue length does an incoming req see
system.mem_ctrls1.wrQLenPdf::52                     0                       # What write queue length does an incoming req see
system.mem_ctrls1.wrQLenPdf::53                     0                       # What write queue length does an incoming req see
system.mem_ctrls1.wrQLenPdf::54                     0                       # What write queue length does an incoming req see
system.mem_ctrls1.wrQLenPdf::55                     0                       # What write queue length does an incoming req see
system.mem_ctrls1.wrQLenPdf::56                     0                       # What write queue length does an incoming req see
system.mem_ctrls1.wrQLenPdf::57                     0                       # What write queue length does an incoming req see
system.mem_ctrls1.wrQLenPdf::58                     0                       # What write queue length does an incoming req see
system.mem_ctrls1.wrQLenPdf::59                     0                       # What write queue length does an incoming req see
system.mem_ctrls1.wrQLenPdf::60                     0                       # What write queue length does an incoming req see
system.mem_ctrls1.wrQLenPdf::61                     0                       # What write queue length does an incoming req see
system.mem_ctrls1.wrQLenPdf::62                     0                       # What write queue length does an incoming req see
system.mem_ctrls1.wrQLenPdf::63                     0                       # What write queue length does an incoming req see
system.mem_ctrls1.bytesPerActivate::samples      2454963                       # Bytes accessed per row activation
system.mem_ctrls1.bytesPerActivate::mean   148.148129                       # Bytes accessed per row activation
system.mem_ctrls1.bytesPerActivate::gmean   109.815792                       # Bytes accessed per row activation
system.mem_ctrls1.bytesPerActivate::stdev   153.483913                       # Bytes accessed per row activation
system.mem_ctrls1.bytesPerActivate::0-127      1282617     52.25%     52.25% # Bytes accessed per row activation
system.mem_ctrls1.bytesPerActivate::128-255       806827     32.87%     85.11% # Bytes accessed per row activation
system.mem_ctrls1.bytesPerActivate::256-383       145889      5.94%     91.05% # Bytes accessed per row activation
system.mem_ctrls1.bytesPerActivate::384-511        75354      3.07%     94.12% # Bytes accessed per row activation
system.mem_ctrls1.bytesPerActivate::512-639        69647      2.84%     96.96% # Bytes accessed per row activation
system.mem_ctrls1.bytesPerActivate::640-767        31476      1.28%     98.24% # Bytes accessed per row activation
system.mem_ctrls1.bytesPerActivate::768-895        25107      1.02%     99.26% # Bytes accessed per row activation
system.mem_ctrls1.bytesPerActivate::896-1023         9384      0.38%     99.65% # Bytes accessed per row activation
system.mem_ctrls1.bytesPerActivate::1024-1151         8662      0.35%    100.00% # Bytes accessed per row activation
system.mem_ctrls1.bytesPerActivate::total      2454963                       # Bytes accessed per row activation
system.mem_ctrls1.rdPerTurnAround::samples        80432                       # Reads before turning the bus around for writes
system.mem_ctrls1.rdPerTurnAround::mean     53.542520                       # Reads before turning the bus around for writes
system.mem_ctrls1.rdPerTurnAround::gmean    48.047690                       # Reads before turning the bus around for writes
system.mem_ctrls1.rdPerTurnAround::stdev   114.141528                       # Reads before turning the bus around for writes
system.mem_ctrls1.rdPerTurnAround::0-1023        80431    100.00%    100.00% # Reads before turning the bus around for writes
system.mem_ctrls1.rdPerTurnAround::30720-31743            1      0.00%    100.00% # Reads before turning the bus around for writes
system.mem_ctrls1.rdPerTurnAround::total        80432                       # Reads before turning the bus around for writes
system.mem_ctrls1.wrPerTurnAround::samples        80432                       # Writes before turning the bus around for reads
system.mem_ctrls1.wrPerTurnAround::mean     17.110677                       # Writes before turning the bus around for reads
system.mem_ctrls1.wrPerTurnAround::gmean    17.078238                       # Writes before turning the bus around for reads
system.mem_ctrls1.wrPerTurnAround::stdev     1.053780                       # Writes before turning the bus around for reads
system.mem_ctrls1.wrPerTurnAround::15               1      0.00%      0.00% # Writes before turning the bus around for reads
system.mem_ctrls1.wrPerTurnAround::16           36826     45.79%     45.79% # Writes before turning the bus around for reads
system.mem_ctrls1.wrPerTurnAround::17            1424      1.77%     47.56% # Writes before turning the bus around for reads
system.mem_ctrls1.wrPerTurnAround::18           38911     48.38%     95.93% # Writes before turning the bus around for reads
system.mem_ctrls1.wrPerTurnAround::19            3029      3.77%     99.70% # Writes before turning the bus around for reads
system.mem_ctrls1.wrPerTurnAround::20             207      0.26%     99.96% # Writes before turning the bus around for reads
system.mem_ctrls1.wrPerTurnAround::21              30      0.04%    100.00% # Writes before turning the bus around for reads
system.mem_ctrls1.wrPerTurnAround::22               4      0.00%    100.00% # Writes before turning the bus around for reads
system.mem_ctrls1.wrPerTurnAround::total        80432                       # Writes before turning the bus around for reads
system.mem_ctrls1.totQLat                 93760683502                       # Total ticks spent queuing
system.mem_ctrls1.totMemAccLat           174508814752                       # Total ticks spent from burst creation until serviced by the DRAM
system.mem_ctrls1.totBusLat               21532835000                       # Total ticks spent in databus transfers
system.mem_ctrls1.avgQLat                    21771.56                       # Average queueing delay per DRAM burst
system.mem_ctrls1.avgBusLat                   5000.00                       # Average bus latency per DRAM burst
system.mem_ctrls1.avgMemAccLat               40521.56                       # Average memory access latency per DRAM burst
system.mem_ctrls1.avgRdBW                      154.69                       # Average DRAM read bandwidth in MiByte/s
system.mem_ctrls1.avgWrBW                       49.43                       # Average achieved write bandwidth in MiByte/s
system.mem_ctrls1.avgRdBWSys                   154.70                       # Average system read bandwidth in MiByte/s
system.mem_ctrls1.avgWrBWSys                    49.43                       # Average system write bandwidth in MiByte/s
system.mem_ctrls1.peakBW                     12800.00                       # Theoretical peak bandwidth in MiByte/s
system.mem_ctrls1.busUtil                        1.59                       # Data bus utilization in percentage
system.mem_ctrls1.busUtilRead                    1.21                       # Data bus utilization in percentage for reads
system.mem_ctrls1.busUtilWrite                   0.39                       # Data bus utilization in percentage for writes
system.mem_ctrls1.avgRdQLen                      1.02                       # Average read queue length when enqueuing
system.mem_ctrls1.avgWrQLen                     24.55                       # Average write queue length when enqueuing
system.mem_ctrls1.readRowHits                 2702824                       # Number of row buffer hits during reads
system.mem_ctrls1.writeRowHits                 525016                       # Number of row buffer hits during writes
system.mem_ctrls1.readRowHitRate                62.76                       # Row buffer hit rate for reads
system.mem_ctrls1.writeRowHitRate               38.15                       # Row buffer hit rate for writes
system.mem_ctrls1.avgGap                    313521.24                       # Average gap between requests
system.mem_ctrls1.pageHitRate                   56.80                       # Row buffer hit rate, read and write combined
system.mem_ctrls1_0.actEnergy              8838220440                       # Energy for activate commands per rank (pJ)
system.mem_ctrls1_0.preEnergy              4697602800                       # Energy for precharge commands per rank (pJ)
system.mem_ctrls1_0.readEnergy            15482683020                       # Energy for read commands per rank (pJ)
system.mem_ctrls1_0.writeEnergy            3640073040                       # Energy for write commands per rank (pJ)
system.mem_ctrls1_0.refreshEnergy        138796160880.000031                       # Energy for refresh commands per rank (pJ)
system.mem_ctrls1_0.actBackEnergy         90761317170                       # Energy for active background per rank (pJ)
system.mem_ctrls1_0.preBackEnergy          5010138240                       # Energy for precharge background per rank (pJ)
system.mem_ctrls1_0.actPowerDownEnergy   532048473750                       # Energy for active power-down per rank (pJ)
system.mem_ctrls1_0.prePowerDownEnergy   105350645280                       # Energy for precharge power-down per rank (pJ)
system.mem_ctrls1_0.selfRefreshEnergy     38870806410                       # Energy for self refresh per rank (pJ)
system.mem_ctrls1_0.totalEnergy          943530810300                       # Total energy per rank (pJ)
system.mem_ctrls1_0.averagePower           529.539969                       # Core power per rank (mW)
system.mem_ctrls1_0.totalIdleTime        1569629787024                       # Total Idle time Per DRAM Rank
system.mem_ctrls1_0.memoryStateTime::IDLE   5241378431                       # Time in different power states
system.mem_ctrls1_0.memoryStateTime::REF  58803422000                       # Time in different power states
system.mem_ctrls1_0.memoryStateTime::SREF 128507519768                       # Time in different power states
system.mem_ctrls1_0.memoryStateTime::PRE_PDN 274349997947                       # Time in different power states
system.mem_ctrls1_0.memoryStateTime::ACT 148118681474                       # Time in different power states
system.mem_ctrls1_0.memoryStateTime::ACT_PDN 1166772361109                       # Time in different power states
system.mem_ctrls1_1.actEnergy              8690286780                       # Energy for activate commands per rank (pJ)
system.mem_ctrls1_1.preEnergy              4618981785                       # Energy for precharge commands per rank (pJ)
system.mem_ctrls1_1.readEnergy            15266205360                       # Energy for read commands per rank (pJ)
system.mem_ctrls1_1.writeEnergy            3543931080                       # Energy for write commands per rank (pJ)
system.mem_ctrls1_1.refreshEnergy        138380664240.000031                       # Energy for refresh commands per rank (pJ)
system.mem_ctrls1_1.actBackEnergy         91054931010                       # Energy for active background per rank (pJ)
system.mem_ctrls1_1.preBackEnergy          5038750080                       # Energy for precharge background per rank (pJ)
system.mem_ctrls1_1.actPowerDownEnergy   526935771540                       # Energy for active power-down per rank (pJ)
system.mem_ctrls1_1.prePowerDownEnergy   106549797120                       # Energy for precharge power-down per rank (pJ)
system.mem_ctrls1_1.selfRefreshEnergy     40800313815                       # Energy for self refresh per rank (pJ)
system.mem_ctrls1_1.totalEnergy          940913466990                       # Total energy per rank (pJ)
system.mem_ctrls1_1.averagePower           528.071031                       # Core power per rank (mW)
system.mem_ctrls1_1.totalIdleTime        1568923268898                       # Total Idle time Per DRAM Rank
system.mem_ctrls1_1.memoryStateTime::IDLE   5350921397                       # Time in different power states
system.mem_ctrls1_1.memoryStateTime::REF  58629360000                       # Time in different power states
system.mem_ctrls1_1.memoryStateTime::SREF 135880221204                       # Time in different power states
system.mem_ctrls1_1.memoryStateTime::PRE_PDN 277473307148                       # Time in different power states
system.mem_ctrls1_1.memoryStateTime::ACT 148889627059                       # Time in different power states
system.mem_ctrls1_1.memoryStateTime::ACT_PDN 1155569923921                       # Time in different power states
system.pwrStateResidencyTicks::UNDEFINED 75051947161431                       # Cumulative time (in ticks) in various power states
system.cpu.branchPred.lookups                       2                       # Number of BP lookups
system.cpu.branchPred.condPredicted                 2                       # Number of conditional branches predicted
system.cpu.branchPred.condIncorrect                 1                       # Number of conditional branches incorrect
system.cpu.branchPred.BTBLookups                    0                       # Number of BTB lookups
system.cpu.branchPred.BTBHits                       0                       # Number of BTB hits
system.cpu.branchPred.BTBCorrect                    0                       # Number of correct BTB predictions (this stat may not work properly.
system.cpu.branchPred.BTBHitPct                   nan                       # BTB Hit Percentage
system.cpu.branchPred.usedRAS                       0                       # Number of times the RAS was used to get a target.
system.cpu.branchPred.RASInCorrect                  0                       # Number of incorrect RAS predictions.
system.cpu.branchPred.indirectLookups               0                       # Number of indirect predictor lookups.
system.cpu.branchPred.indirectHits                  0                       # Number of indirect target hits.
system.cpu.branchPred.indirectMisses                0                       # Number of indirect misses.
system.cpu.branchPredindirectMispredicted            0                       # Number of mispredicted indirect branches.
system.cpu_voltage_domain.voltage                   1                       # Voltage in Volts
system.cpu_clk_domain.clock                       333                       # Clock period in ticks
system.cpu.dtb.fetch_hits                           0                       # ITB hits
system.cpu.dtb.fetch_misses                         0                       # ITB misses
system.cpu.dtb.fetch_acv                            0                       # ITB acv
system.cpu.dtb.fetch_accesses                       0                       # ITB accesses
system.cpu.dtb.read_hits                           23                       # DTB read hits
system.cpu.dtb.read_misses                          0                       # DTB read misses
system.cpu.dtb.read_acv                             0                       # DTB read access violations
system.cpu.dtb.read_accesses                       23                       # DTB read accesses
system.cpu.dtb.write_hits                           3                       # DTB write hits
system.cpu.dtb.write_misses                         0                       # DTB write misses
system.cpu.dtb.write_acv                            0                       # DTB write access violations
system.cpu.dtb.write_accesses                       3                       # DTB write accesses
system.cpu.dtb.data_hits                           26                       # DTB hits
system.cpu.dtb.data_misses                          0                       # DTB misses
system.cpu.dtb.data_acv                             0                       # DTB access violations
system.cpu.dtb.data_accesses                       26                       # DTB accesses
system.cpu.itb.fetch_hits                           7                       # ITB hits
system.cpu.itb.fetch_misses                         0                       # ITB misses
system.cpu.itb.fetch_acv                            0                       # ITB acv
system.cpu.itb.fetch_accesses                       7                       # ITB accesses
system.cpu.itb.read_hits                            0                       # DTB read hits
system.cpu.itb.read_misses                          0                       # DTB read misses
system.cpu.itb.read_acv                             0                       # DTB read access violations
system.cpu.itb.read_accesses                        0                       # DTB read accesses
system.cpu.itb.write_hits                           0                       # DTB write hits
system.cpu.itb.write_misses                         0                       # DTB write misses
system.cpu.itb.write_acv                            0                       # DTB write access violations
system.cpu.itb.write_accesses                       0                       # DTB write accesses
system.cpu.itb.data_hits                            0                       # DTB hits
system.cpu.itb.data_misses                          0                       # DTB misses
system.cpu.itb.data_acv                             0                       # DTB access violations
system.cpu.itb.data_accesses                        0                       # DTB accesses
system.cpu.workload.num_syscalls                    0                       # Number of system calls
system.cpu.pwrStateResidencyTicks::ON    1781793360729                       # Cumulative time (in ticks) in various power states
system.cpu.numCycles                              871                       # number of cpu cycles simulated
system.cpu.numWorkItemsStarted                      0                       # number of work items this cpu started
system.cpu.numWorkItemsCompleted                    0                       # number of work items this cpu completed
system.cpu.fetch.icacheStallCycles                 62                       # Number of cycles fetch is stalled on an Icache miss
system.cpu.fetch.Insts                             51                       # Number of instructions fetch has processed
system.cpu.fetch.Branches                           2                       # Number of branches that fetch encountered
system.cpu.fetch.Cycles                             7                       # Number of cycles fetch has run and was not squashing or blocked
system.cpu.fetch.SquashCycles                       5                       # Number of cycles fetch has spent squashing
system.cpu.fetch.PendingDrainCycles                10                       # Number of cycles fetch has spent waiting on pipes to drain
system.cpu.fetch.CacheLines                         7                       # Number of cache lines fetched
system.cpu.fetch.IcacheSquashes                     3                       # Number of outstanding Icache misses that were squashed
system.cpu.fetch.rateDist::samples                 81                       # Number of instructions fetched each cycle (Total)
system.cpu.fetch.rateDist::mean              0.629630                       # Number of instructions fetched each cycle (Total)
system.cpu.fetch.rateDist::stdev             2.100265                       # Number of instructions fetched each cycle (Total)
system.cpu.fetch.rateDist::underflows               0      0.00%      0.00% # Number of instructions fetched each cycle (Total)
system.cpu.fetch.rateDist::0                       74     91.36%     91.36% # Number of instructions fetched each cycle (Total)
system.cpu.fetch.rateDist::1                        0      0.00%     91.36% # Number of instructions fetched each cycle (Total)
system.cpu.fetch.rateDist::2                        0      0.00%     91.36% # Number of instructions fetched each cycle (Total)
system.cpu.fetch.rateDist::3                        0      0.00%     91.36% # Number of instructions fetched each cycle (Total)
system.cpu.fetch.rateDist::4                        1      1.23%     92.59% # Number of instructions fetched each cycle (Total)
[...]
system.switch_cpus_1.iq.int_inst_queue_writes    142179523                       # Number of integer instruction queue writes
system.switch_cpus_1.iq.int_inst_queue_wakeup_accesses    140179869                       # Number of integer instruction queue wakeup accesses
system.switch_cpus_1.iq.fp_inst_queue_reads    152742584                       # Number of floating instruction queue reads
system.switch_cpus_1.iq.fp_inst_queue_writes     62654789                       # Number of floating instruction queue writes
system.switch_cpus_1.iq.fp_inst_queue_wakeup_accesses     61348663                       # Number of floating instruction queue wakeup accesses
system.switch_cpus_1.iq.int_alu_accesses    154345949                       # Number of integer alu accesses
system.switch_cpus_1.iq.fp_alu_accesses      82257728                       # Number of floating point alu accesses
system.switch_cpus_1.iew.lsq.thread0.forwLoads      1438021                       # Number of loads that had data forwarded from stores
system.switch_cpus_1.iew.lsq.thread0.invAddrLoads            0                       # Number of loads ignored due to an invalid address
system.switch_cpus_1.iew.lsq.thread0.squashedLoads       803189                       # Number of loads squashed
system.switch_cpus_1.iew.lsq.thread0.ignoredResponses            0                       # Number of memory responses ignored because the instruction is squashed
system.switch_cpus_1.iew.lsq.thread0.memOrderViolation          351                       # Number of memory ordering violations
system.switch_cpus_1.iew.lsq.thread0.squashedStores       151707                       # Number of stores squashed
system.switch_cpus_1.iew.lsq.thread0.invAddrSwpfs            0                       # Number of software prefetches ignored due to an invalid address
system.switch_cpus_1.iew.lsq.thread0.blockedLoads            0                       # Number of blocked loads due to partial load-store forwarding
system.switch_cpus_1.iew.lsq.thread0.rescheduledLoads            0                       # Number of loads that were rescheduled
system.switch_cpus_1.iew.lsq.thread0.cacheBlocked     13087464                       # Number of times an access to memory failed due to the cache being blocked
system.switch_cpus_1.iew.iewIdleCycles              0                       # Number of cycles IEW is idle
system.switch_cpus_1.iew.iewSquashCycles        63500                       # Number of cycles IEW is squashing
system.switch_cpus_1.iew.iewBlockCycles      16353879                       # Number of cycles IEW is blocking
system.switch_cpus_1.iew.iewUnblockCycles     30736421                       # Number of cycles IEW is unblocking
system.switch_cpus_1.iew.iewDispatchedInsts    202484904                       # Number of instructions dispatched to IQ
system.switch_cpus_1.iew.iewDispSquashedInsts        61477                       # Number of squashed instructions skipped by dispatch
system.switch_cpus_1.iew.iewDispLoadInsts     68397588                       # Number of dispatched load instructions
system.switch_cpus_1.iew.iewDispStoreInsts     10464188                       # Number of dispatched store instructions
system.switch_cpus_1.iew.iewDispNonSpecInsts           86                       # Number of dispatched non-speculative instructions
system.switch_cpus_1.iew.iewIQFullEvents       251291                       # Number of times the IQ has become full, causing a stall
system.switch_cpus_1.iew.iewLSQFullEvents     30221940                       # Number of times the LSQ has become full, causing a stall
system.switch_cpus_1.iew.memOrderViolationEvents          351                       # Number of memory order violations
system.switch_cpus_1.iew.predictedTakenIncorrect        47595                       # Number of branches that were predicted taken incorrectly
system.switch_cpus_1.iew.predictedNotTakenIncorrect          437                       # Number of branches that were predicted not taken incorrectly
system.switch_cpus_1.iew.branchMispredicts        48032                       # Number of branch mispredicts detected at execute
system.switch_cpus_1.iew.iewExecutedInsts    214470742                       # Number of executed instructions
system.switch_cpus_1.iew.iewExecLoadInsts     80969168                       # Number of load instructions executed
system.switch_cpus_1.iew.iewExecSquashedInsts       115399                       # Number of squashed instructions skipped in execute
system.switch_cpus_1.iew.exec_swp                   0                       # number of swp insts executed
system.switch_cpus_1.iew.exec_nop               67880                       # number of nop insts executed
system.switch_cpus_1.iew.exec_refs           91323536                       # number of memory reference insts executed
system.switch_cpus_1.iew.exec_branches        5549790                       # Number of branches executed
system.switch_cpus_1.iew.exec_stores         10354368                       # Number of stores executed
system.switch_cpus_1.iew.exec_rate           0.904106                       # Inst execution rate
system.switch_cpus_1.iew.wb_sent            201662531                       # cumulative count of insts sent to commit
system.switch_cpus_1.iew.wb_count           201528532                       # cumulative count of insts written-back
system.switch_cpus_1.iew.wb_producers       139728624                       # num instructions producing a value
system.switch_cpus_1.iew.wb_consumers       153406437                       # num instructions consuming a value
system.switch_cpus_1.iew.wb_rate             0.849548                       # insts written-back per cycle
system.switch_cpus_1.iew.wb_fanout           0.910839                       # average fanout of values written-back
system.switch_cpus_1.commit.commitSquashedInsts      2360851                       # The number of squashed insts skipped by commit
system.switch_cpus_1.commit.commitNonSpecStalls          144                       # The number of times commit has been forced to stall to communicate backwards
system.switch_cpus_1.commit.branchMispredicts        47873                       # The number of times a branch was mispredicted
system.switch_cpus_1.commit.committed_per_cycle::samples    236889186                       # Number of insts commited each cycle
system.switch_cpus_1.commit.committed_per_cycle::mean     0.844524                       # Number of insts commited each cycle
system.switch_cpus_1.commit.committed_per_cycle::stdev     2.299590                       # Number of insts commited each cycle
system.switch_cpus_1.commit.committed_per_cycle::underflows            0      0.00%      0.00% # Number of insts commited each cycle
system.switch_cpus_1.commit.committed_per_cycle::0    201076243     84.88%     84.88% # Number of insts commited each cycle
system.switch_cpus_1.commit.committed_per_cycle::1      7414861      3.13%     88.01% # Number of insts commited each cycle
system.switch_cpus_1.commit.committed_per_cycle::2      1506393      0.64%     88.65% # Number of insts commited each cycle
system.switch_cpus_1.commit.committed_per_cycle::3      1582287      0.67%     89.32% # Number of insts commited each cycle
system.switch_cpus_1.commit.committed_per_cycle::4      2207023      0.93%     90.25% # Number of insts commited each cycle
system.switch_cpus_1.commit.committed_per_cycle::5      1479586      0.62%     90.87% # Number of insts commited each cycle
system.switch_cpus_1.commit.committed_per_cycle::6      1336161      0.56%     91.44% # Number of insts commited each cycle
system.switch_cpus_1.commit.committed_per_cycle::7      1651881      0.70%     92.13% # Number of insts commited each cycle
system.switch_cpus_1.commit.committed_per_cycle::8     18634751      7.87%    100.00% # Number of insts commited each cycle
system.switch_cpus_1.commit.committed_per_cycle::overflows            0      0.00%    100.00% # Number of insts commited each cycle
system.switch_cpus_1.commit.committed_per_cycle::min_value            0                       # Number of insts commited each cycle
system.switch_cpus_1.commit.committed_per_cycle::max_value            8                       # Number of insts commited each cycle
system.switch_cpus_1.commit.committed_per_cycle::total    236889186                       # Number of insts commited each cycle
system.switch_cpus_1.commit.committedInsts    200058671                       # Number of instructions committed
system.switch_cpus_1.commit.committedOps    200058671                       # Number of ops (including micro ops) committed
system.switch_cpus_1.commit.swp_count               0                       # Number of s/w prefetches committed
system.switch_cpus_1.commit.refs             77906848                       # Number of memory references committed
system.switch_cpus_1.commit.loads            67594371                       # Number of loads committed
system.switch_cpus_1.commit.membars                72                       # Number of memory barriers committed
system.switch_cpus_1.commit.branches          5447366                       # Number of branches committed
system.switch_cpus_1.commit.fp_insts         61032861                       # Number of committed floating point instructions.
system.switch_cpus_1.commit.int_insts       169602469                       # Number of committed integer instructions.
system.switch_cpus_1.commit.function_calls           74                       # Number of function calls committed.
system.switch_cpus_1.commit.op_class_0::No_OpClass        58667      0.03%      0.03% # Class of committed instruction
system.switch_cpus_1.commit.op_class_0::IntAlu     69024585     34.50%     34.53% # Class of committed instruction
system.switch_cpus_1.commit.op_class_0::IntMult     22692429     11.34%     45.87% # Class of committed instruction
system.switch_cpus_1.commit.op_class_0::IntDiv            0      0.00%     45.87% # Class of committed instruction
system.switch_cpus_1.commit.op_class_0::FloatAdd     15421069      7.71%     53.58% # Class of committed instruction
system.switch_cpus_1.commit.op_class_0::FloatCmp            0      0.00%     53.58% # Class of committed instruction
system.switch_cpus_1.commit.op_class_0::FloatCvt         3010      0.00%     53.58% # Class of committed instruction
system.switch_cpus_1.commit.op_class_0::FloatMult     13619855      6.81%     60.39% # Class of committed instruction
system.switch_cpus_1.commit.op_class_0::FloatMultAcc            0      0.00%     60.39% # Class of committed instruction
system.switch_cpus_1.commit.op_class_0::FloatDiv      1151536      0.58%     60.97% # Class of committed instruction
system.switch_cpus_1.commit.op_class_0::FloatMisc            0      0.00%     60.97% # Class of committed instruction
system.switch_cpus_1.commit.op_class_0::FloatSqrt       180600      0.09%     61.06% # Class of committed instruction
system.switch_cpus_1.commit.op_class_0::SimdAdd            0      0.00%     61.06% # Class of committed instruction
system.switch_cpus_1.commit.op_class_0::SimdAddAcc            0      0.00%     61.06% # Class of committed instruction
system.switch_cpus_1.commit.op_class_0::SimdAlu            0      0.00%     61.06% # Class of committed instruction
system.switch_cpus_1.commit.op_class_0::SimdCmp            0      0.00%     61.06% # Class of committed instruction
system.switch_cpus_1.commit.op_class_0::SimdCvt            0      0.00%     61.06% # Class of committed instruction
system.switch_cpus_1.commit.op_class_0::SimdMisc            0      0.00%     61.06% # Class of committed instruction
system.switch_cpus_1.commit.op_class_0::SimdMult            0      0.00%     61.06% # Class of committed instruction
system.switch_cpus_1.commit.op_class_0::SimdMultAcc            0      0.00%     61.06% # Class of committed instruction
system.switch_cpus_1.commit.op_class_0::SimdShift            0      0.00%     61.06% # Class of committed instruction
system.switch_cpus_1.commit.op_class_0::SimdShiftAcc            0      0.00%     61.06% # Class of committed instruction
system.switch_cpus_1.commit.op_class_0::SimdSqrt            0      0.00%     61.06% # Class of committed instruction
system.switch_cpus_1.commit.op_class_0::SimdFloatAdd            0      0.00%     61.06% # Class of committed instruction
system.switch_cpus_1.commit.op_class_0::SimdFloatAlu            0      0.00%     61.06% # Class of committed instruction
system.switch_cpus_1.commit.op_class_0::SimdFloatCmp            0      0.00%     61.06% # Class of committed instruction
system.switch_cpus_1.commit.op_class_0::SimdFloatCvt            0      0.00%     61.06% # Class of committed instruction
system.switch_cpus_1.commit.op_class_0::SimdFloatDiv            0      0.00%     61.06% # Class of committed instruction
system.switch_cpus_1.commit.op_class_0::SimdFloatMisc            0      0.00%     61.06% # Class of committed instruction
system.switch_cpus_1.commit.op_class_0::SimdFloatMult            0      0.00%     61.06% # Class of committed instruction
system.switch_cpus_1.commit.op_class_0::SimdFloatMultAcc            0      0.00%     61.06% # Class of committed instruction
system.switch_cpus_1.commit.op_class_0::SimdFloatSqrt            0      0.00%     61.06% # Class of committed instruction
system.switch_cpus_1.commit.op_class_0::MemRead     44149715     22.07%     83.13% # Class of committed instruction
system.switch_cpus_1.commit.op_class_0::MemWrite      3100414      1.55%     84.68% # Class of committed instruction
system.switch_cpus_1.commit.op_class_0::FloatMemRead     23444728     11.72%     96.40% # Class of committed instruction
system.switch_cpus_1.commit.op_class_0::FloatMemWrite      7212063      3.60%    100.00% # Class of committed instruction
system.switch_cpus_1.commit.op_class_0::IprAccess            0      0.00%    100.00% # Class of committed instruction
system.switch_cpus_1.commit.op_class_0::InstPrefetch            0      0.00%    100.00% # Class of committed instruction
system.switch_cpus_1.commit.op_class_0::total    200058671                       # Class of committed instruction
system.switch_cpus_1.commit.bw_lim_events     18634751                       # number cycles where commit BW limit reached
system.switch_cpus_1.rob.rob_reads          420474784                       # The number of ROB reads
system.switch_cpus_1.rob.rob_writes         405158607                       # The number of ROB writes
system.switch_cpus_1.timesIdled                   115                       # Number of times that the entire CPU went into an idle state and unscheduled itself
system.switch_cpus_1.idleCycles                  9963                       # Total number of cycles that the CPU has spent unscheduled due to idling
system.switch_cpus_1.committedInsts         200000004                       # Number of Instructions Simulated
system.switch_cpus_1.committedOps           200000004                       # Number of Ops (including micro ops) Simulated
system.switch_cpus_1.cpi                     1.186093                       # CPI: Cycles Per Instruction
system.switch_cpus_1.cpi_total               1.186093                       # CPI: Total CPI of All Threads
system.switch_cpus_1.ipc                     0.843104                       # IPC: Instructions Per Cycle
system.switch_cpus_1.ipc_total               0.843104                       # IPC: Total IPC of All Threads
system.switch_cpus_1.int_regfile_reads      261006443                       # number of integer regfile reads
system.switch_cpus_1.int_regfile_writes     131551677                       # number of integer regfile writes
system.switch_cpus_1.fp_regfile_reads        68054232                       # number of floating regfile reads
system.switch_cpus_1.fp_regfile_writes       54126552                       # number of floating regfile writes
system.switch_cpus_1.misc_regfile_reads           162                       # number of misc regfile reads
system.switch_cpus_1.misc_regfile_writes          144                       # number of misc regfile writes
system.tol3bus.snoop_filter.tot_requests     21501558                       # Total number of requests made to the snoop filter.
system.tol3bus.snoop_filter.hit_single_requests     10748472                       # Number of requests hitting in the snoop filter with a single holder of the requested data.
system.tol3bus.snoop_filter.hit_multi_requests            0                       # Number of requests hitting in the snoop filter with multiple (>1) holders of the requested data.
system.tol3bus.snoop_filter.tot_snoops         127353                       # Total number of snoops made to the snoop filter.
system.tol3bus.snoop_filter.hit_single_snoops       127353                       # Number of snoops hitting in the snoop filter with a single holder of the requested data.
system.tol3bus.snoop_filter.hit_multi_snoops            0                       # Number of snoops hitting in the snoop filter with multiple (>1) holders of the requested data.
system.tol3bus.pwrStateResidencyTicks::UNDEFINED 75051947161431                       # Cumulative time (in ticks) in various power states
system.tol3bus.trans_dist::ReadResp           8306215                       # Transaction distribution
system.tol3bus.trans_dist::WritebackDirty      6019264                       # Transaction distribution
system.tol3bus.trans_dist::CleanEvict        13282504                       # Transaction distribution
system.tol3bus.trans_dist::ReadExReq          2446871                       # Transaction distribution
system.tol3bus.trans_dist::ReadExResp         2446869                       # Transaction distribution
system.tol3bus.trans_dist::ReadSharedReq      8306215                       # Transaction distribution
system.tol3bus.pkt_count_system.cpu.l2.mem_side::system.l3.cpu_side     32254642                       # Packet count per connected master and slave (bytes)
system.tol3bus.pkt_size_system.cpu.l2.mem_side::system.l3.cpu_side    897292736                       # Cumulative packet size per connected master and slave (bytes)
system.tol3bus.snoops                         8553296                       # Total snoops (count)
system.tol3bus.snoopTraffic                 176137536                       # Total snoop traffic (bytes)
system.tol3bus.snoop_fanout::samples         19306382                       # Request fanout histogram
system.tol3bus.snoop_fanout::mean            0.006596                       # Request fanout histogram
system.tol3bus.snoop_fanout::stdev           0.080950                       # Request fanout histogram
system.tol3bus.snoop_fanout::underflows             0      0.00%      0.00% # Request fanout histogram
system.tol3bus.snoop_fanout::0               19179029     99.34%     99.34% # Request fanout histogram
system.tol3bus.snoop_fanout::1                 127353      0.66%    100.00% # Request fanout histogram
system.tol3bus.snoop_fanout::overflows              0      0.00%    100.00% # Request fanout histogram
system.tol3bus.snoop_fanout::min_value              0                       # Request fanout histogram
system.tol3bus.snoop_fanout::max_value              1                       # Request fanout histogram
system.tol3bus.snoop_fanout::total           19306382                       # Request fanout histogram
system.tol3bus.reqLayer0.occupancy         8247968109                       # Layer occupancy (ticks)
system.tol3bus.reqLayer0.utilization              0.5                       # Layer utilization (%)
system.tol3bus.respLayer0.occupancy        7161553944                       # Layer occupancy (ticks)
system.tol3bus.respLayer0.utilization             0.4                       # Layer utilization (%)

---------- End Simulation Statistics   ----------
