
---------- Begin Simulation Statistics ----------
sim_seconds                                  4.077824                       # Number of seconds simulated
sim_ticks                                4077824318775                       # Number of ticks simulated
final_tick                               131030820843507                       # Number of ticks from beginning of simulation (restored from checkpoints and never reset)
sim_freq                                 1000000000000                       # Frequency of simulated ticks
host_inst_rate                                 140770                       # Simulator instruction rate (inst/s)
host_op_rate                                   140770                       # Simulator op (including micro ops) rate (op/s)
host_tick_rate                              382688918                       # Simulator tick rate (ticks/s)
host_mem_usage                                2456268                       # Number of bytes of host memory used
host_seconds                                 10655.72                       # Real time elapsed on the host
sim_insts                                  1500000009                       # Number of instructions simulated
sim_ops                                    1500000009                       # Number of ops (including micro ops) simulated
system.voltage_domain.voltage                       1                       # Voltage in Volts
system.clk_domain.clock                          1000                       # Clock period in ticks
system.mem_ctrls0.pwrStateResidencyTicks::UNDEFINED 131030820843507                       # Cumulative time (in ticks) in various power states
system.mem_ctrls0.bytes_read::cpu.inst            128                       # Number of bytes read from this memory
system.mem_ctrls0.bytes_read::switch_cpus.inst       675712                       # Number of bytes read from this memory
system.mem_ctrls0.bytes_read::switch_cpus.data    363263296                       # Number of bytes read from this memory
system.mem_ctrls0.bytes_read::switch_cpus_1.inst       508928                       # Number of bytes read from this memory
system.mem_ctrls0.bytes_read::switch_cpus_1.data    199268992                       # Number of bytes read from this memory
system.mem_ctrls0.bytes_read::total         563717056                       # Number of bytes read from this memory
system.mem_ctrls0.bytes_inst_read::cpu.inst          128                       # Number of instructions bytes read from this memory
system.mem_ctrls0.bytes_inst_read::switch_cpus.inst       675712                       # Number of instructions bytes read from this memory
system.mem_ctrls0.bytes_inst_read::switch_cpus_1.inst       508928                       # Number of instructions bytes read from this memory
system.mem_ctrls0.bytes_inst_read::total      1184768                       # Number of instructions bytes read from this memory
system.mem_ctrls0.bytes_written::writebacks    233722048                       # Number of bytes written to this memory
system.mem_ctrls0.bytes_written::total      233722048                       # Number of bytes written to this memory
system.mem_ctrls0.num_reads::cpu.inst               2                       # Number of read requests responded to by this memory
system.mem_ctrls0.num_reads::switch_cpus.inst        10558                       # Number of read requests responded to by this memory
system.mem_ctrls0.num_reads::switch_cpus.data      5675989                       # Number of read requests responded to by this memory
system.mem_ctrls0.num_reads::switch_cpus_1.inst         7952                       # Number of read requests responded to by this memory
system.mem_ctrls0.num_reads::switch_cpus_1.data      3113578                       # Number of read requests responded to by this memory
system.mem_ctrls0.num_reads::total            8808079                       # Number of read requests responded to by this memory
system.mem_ctrls0.num_writes::writebacks      3651907                       # Number of write requests responded to by this memory
system.mem_ctrls0.num_writes::total           3651907                       # Number of write requests responded to by this memory
system.mem_ctrls0.bw_read::cpu.inst                31                       # Total read bandwidth from this memory (bytes/s)
system.mem_ctrls0.bw_read::switch_cpus.inst       165704                       # Total read bandwidth from this memory (bytes/s)
system.mem_ctrls0.bw_read::switch_cpus.data     89082625                       # Total read bandwidth from this memory (bytes/s)
system.mem_ctrls0.bw_read::switch_cpus_1.inst       124804                       # Total read bandwidth from this memory (bytes/s)
system.mem_ctrls0.bw_read::switch_cpus_1.data     48866498                       # Total read bandwidth from this memory (bytes/s)
system.mem_ctrls0.bw_read::total            138239662                       # Total read bandwidth from this memory (bytes/s)
system.mem_ctrls0.bw_inst_read::cpu.inst           31                       # Instruction read bandwidth from this memory (bytes/s)
system.mem_ctrls0.bw_inst_read::switch_cpus.inst       165704                       # Instruction read bandwidth from this memory (bytes/s)
system.mem_ctrls0.bw_inst_read::switch_cpus_1.inst       124804                       # Instruction read bandwidth from this memory (bytes/s)
system.mem_ctrls0.bw_inst_read::total          290539                       # Instruction read bandwidth from this memory (bytes/s)
system.mem_ctrls0.bw_write::writebacks       57315379                       # Write bandwidth from this memory (bytes/s)
system.mem_ctrls0.bw_write::total            57315379                       # Write bandwidth from this memory (bytes/s)
system.mem_ctrls0.bw_total::writebacks       57315379                       # Total bandwidth to/from this memory (bytes/s)
system.mem_ctrls0.bw_total::cpu.inst               31                       # Total bandwidth to/from this memory (bytes/s)
system.mem_ctrls0.bw_total::switch_cpus.inst       165704                       # Total bandwidth to/from this memory (bytes/s)
system.mem_ctrls0.bw_total::switch_cpus.data     89082625                       # Total bandwidth to/from this memory (bytes/s)
system.mem_ctrls0.bw_total::switch_cpus_1.inst       124804                       # Total bandwidth to/from this memory (bytes/s)
system.mem_ctrls0.bw_total::switch_cpus_1.data     48866498                       # Total bandwidth to/from this memory (bytes/s)
system.mem_ctrls0.bw_total::total           195555042                       # Total bandwidth to/from this memory (bytes/s)
system.mem_ctrls0.readReqs                    8808079                       # Number of read requests accepted
system.mem_ctrls0.writeReqs                   3651907                       # Number of write requests accepted
system.mem_ctrls0.readBursts                  8808079                       # Number of DRAM read bursts, including those serviced by the write queue
system.mem_ctrls0.writeBursts                 3651907                       # Number of DRAM write bursts, including those merged in the write queue
system.mem_ctrls0.bytesReadDRAM             563466240                       # Total number of bytes read from DRAM
system.mem_ctrls0.bytesReadWrQ                 250816                       # Total number of bytes read from write queue
system.mem_ctrls0.bytesWritten              233720320                       # Total number of bytes written to DRAM
system.mem_ctrls0.bytesReadSys              563717056                       # Total read bytes from the system interface side
system.mem_ctrls0.bytesWrittenSys           233722048                       # Total written bytes from the system interface side
system.mem_ctrls0.servicedByWrQ                  3919                       # Number of DRAM read bursts serviced by the write queue
system.mem_ctrls0.mergedWrBursts                    0                       # Number of DRAM write bursts merged with an existing one
system.mem_ctrls0.neitherReadNorWriteReqs            0                       # Number of requests that are neither read nor write
system.mem_ctrls0.perBankRdBursts::0           544259                       # Per bank write bursts
system.mem_ctrls0.perBankRdBursts::1           556599                       # Per bank write bursts
system.mem_ctrls0.perBankRdBursts::2           555634                       # Per bank write bursts
system.mem_ctrls0.perBankRdBursts::3           536928                       # Per bank write bursts
system.mem_ctrls0.perBankRdBursts::4           536735                       # Per bank write bursts
system.mem_ctrls0.perBankRdBursts::5           558590                       # Per bank write bursts
system.mem_ctrls0.perBankRdBursts::6           566219                       # Per bank write bursts
system.mem_ctrls0.perBankRdBursts::7           563202                       # Per bank write bursts
system.mem_ctrls0.perBankRdBursts::8           574485                       # Per bank write bursts
system.mem_ctrls0.perBankRdBursts::9           553706                       # Per bank write bursts
system.mem_ctrls0.perBankRdBursts::10          535815                       # Per bank write bursts
system.mem_ctrls0.perBankRdBursts::11          536699                       # Per bank write bursts
system.mem_ctrls0.perBankRdBursts::12          532356                       # Per bank write bursts
system.mem_ctrls0.perBankRdBursts::13          551038                       # Per bank write bursts
system.mem_ctrls0.perBankRdBursts::14          554943                       # Per bank write bursts
system.mem_ctrls0.perBankRdBursts::15          546952                       # Per bank write bursts
system.mem_ctrls0.perBankWrBursts::0           226825                       # Per bank write bursts
system.mem_ctrls0.perBankWrBursts::1           226631                       # Per bank write bursts
system.mem_ctrls0.perBankWrBursts::2           231211                       # Per bank write bursts
system.mem_ctrls0.perBankWrBursts::3           218778                       # Per bank write bursts
system.mem_ctrls0.perBankWrBursts::4           220598                       # Per bank write bursts
system.mem_ctrls0.perBankWrBursts::5           232696                       # Per bank write bursts
system.mem_ctrls0.perBankWrBursts::6           239195                       # Per bank write bursts
system.mem_ctrls0.perBankWrBursts::7           237636                       # Per bank write bursts
system.mem_ctrls0.perBankWrBursts::8           238475                       # Per bank write bursts
system.mem_ctrls0.perBankWrBursts::9           226961                       # Per bank write bursts
system.mem_ctrls0.perBankWrBursts::10          222658                       # Per bank write bursts
system.mem_ctrls0.perBankWrBursts::11          226776                       # Per bank write bursts
system.mem_ctrls0.perBankWrBursts::12          218296                       # Per bank write bursts
system.mem_ctrls0.perBankWrBursts::13          226694                       # Per bank write bursts
system.mem_ctrls0.perBankWrBursts::14          233187                       # Per bank write bursts
system.mem_ctrls0.perBankWrBursts::15          225263                       # Per bank write bursts
system.mem_ctrls0.numRdRetry                        0                       # Number of times read queue was full causing retry
system.mem_ctrls0.numWrRetry                        0                       # Number of times write queue was full causing retry
system.mem_ctrls0.totGap                 4077823619808                       # Total gap between requests
system.mem_ctrls0.readPktSize::0                    0                       # Read request sizes (log2)
system.mem_ctrls0.readPktSize::1                    0                       # Read request sizes (log2)
system.mem_ctrls0.readPktSize::2                    0                       # Read request sizes (log2)
system.mem_ctrls0.readPktSize::3                    0                       # Read request sizes (log2)
system.mem_ctrls0.readPktSize::4                    0                       # Read request sizes (log2)
system.mem_ctrls0.readPktSize::5                    0                       # Read request sizes (log2)
system.mem_ctrls0.readPktSize::6              8808079                       # Read request sizes (log2)
system.mem_ctrls0.writePktSize::0                   0                       # Write request sizes (log2)
system.mem_ctrls0.writePktSize::1                   0                       # Write request sizes (log2)
system.mem_ctrls0.writePktSize::2                   0                       # Write request sizes (log2)
system.mem_ctrls0.writePktSize::3                   0                       # Write request sizes (log2)
system.mem_ctrls0.writePktSize::4                   0                       # Write request sizes (log2)
system.mem_ctrls0.writePktSize::5                   0                       # Write request sizes (log2)
system.mem_ctrls0.writePktSize::6             3651907                       # Write request sizes (log2)
system.mem_ctrls0.rdQLenPdf::0                8187762                       # What read queue length does an incoming req see
system.mem_ctrls0.rdQLenPdf::1                 547047                       # What read queue length does an incoming req see
system.mem_ctrls0.rdQLenPdf::2                  65339                       # What read queue length does an incoming req see
system.mem_ctrls0.rdQLenPdf::3                   4006                       # What read queue length does an incoming req see
system.mem_ctrls0.rdQLenPdf::4                      6                       # What read queue length does an incoming req see
system.mem_ctrls0.rdQLenPdf::5                      0                       # What read queue length does an incoming req see
system.mem_ctrls0.rdQLenPdf::6                      0                       # What read queue length does an incoming req see
system.mem_ctrls0.rdQLenPdf::7                      0                       # What read queue length does an incoming req see
system.mem_ctrls0.rdQLenPdf::8                      0                       # What read queue length does an incoming req see
system.mem_ctrls0.rdQLenPdf::9                      0                       # What read queue length does an incoming req see
system.mem_ctrls0.rdQLenPdf::10                     0                       # What read queue length does an incoming req see
system.mem_ctrls0.rdQLenPdf::11                     0                       # What read queue length does an incoming req see
system.mem_ctrls0.rdQLenPdf::12                     0                       # What read queue length does an incoming req see
system.mem_ctrls0.rdQLenPdf::13                     0                       # What read queue length does an incoming req see
system.mem_ctrls0.rdQLenPdf::14                     0                       # What read queue length does an incoming req see
system.mem_ctrls0.rdQLenPdf::15                     0                       # What read queue length does an incoming req see
system.mem_ctrls0.rdQLenPdf::16                     0                       # What read queue length does an incoming req see
system.mem_ctrls0.rdQLenPdf::17                     0                       # What read queue length does an incoming req see
system.mem_ctrls0.rdQLenPdf::18                     0                       # What read queue length does an incoming req see
system.mem_ctrls0.rdQLenPdf::19                     0                       # What read queue length does an incoming req see
system.mem_ctrls0.rdQLenPdf::20                     0                       # What read queue length does an incoming req see
system.mem_ctrls0.rdQLenPdf::21                     0                       # What read queue length does an incoming req see
system.mem_ctrls0.rdQLenPdf::22                     0                       # What read queue length does an incoming req see
system.mem_ctrls0.rdQLenPdf::23                     0                       # What read queue length does an incoming req see
system.mem_ctrls0.rdQLenPdf::24                     0                       # What read queue length does an incoming req see
system.mem_ctrls0.rdQLenPdf::25                     0                       # What read queue length does an incoming req see
system.mem_ctrls0.rdQLenPdf::26                     0                       # What read queue length does an incoming req see
system.mem_ctrls0.rdQLenPdf::27                     0                       # What read queue length does an incoming req see
system.mem_ctrls0.rdQLenPdf::28                     0                       # What read queue length does an incoming req see
system.mem_ctrls0.rdQLenPdf::29                     0                       # What read queue length does an incoming req see
system.mem_ctrls0.rdQLenPdf::30                     0                       # What read queue length does an incoming req see
system.mem_ctrls0.rdQLenPdf::31                     0                       # What read queue length does an incoming req see
system.mem_ctrls0.wrQLenPdf::0                      2                       # What write queue length does an incoming req see
system.mem_ctrls0.wrQLenPdf::1                      2                       # What write queue length does an incoming req see
system.mem_ctrls0.wrQLenPdf::2                      2                       # What write queue length does an incoming req see
system.mem_ctrls0.wrQLenPdf::3                      2                       # What write queue length does an incoming req see
system.mem_ctrls0.wrQLenPdf::4                      2                       # What write queue length does an incoming req see
system.mem_ctrls0.wrQLenPdf::5                      2                       # What write queue length does an incoming req see
system.mem_ctrls0.wrQLenPdf::6                      2                       # What write queue length does an incoming req see
system.mem_ctrls0.wrQLenPdf::7                      2                       # What write queue length does an incoming req see
system.mem_ctrls0.wrQLenPdf::8                      2                       # What write queue length does an incoming req see
system.mem_ctrls0.wrQLenPdf::9                      2                       # What write queue length does an incoming req see
system.mem_ctrls0.wrQLenPdf::10                     2                       # What write queue length does an incoming req see
system.mem_ctrls0.wrQLenPdf::11                     2                       # What write queue length does an incoming req see
system.mem_ctrls0.wrQLenPdf::12                     2                       # What write queue length does an incoming req see
system.mem_ctrls0.wrQLenPdf::13                     2                       # What write queue length does an incoming req see
system.mem_ctrls0.wrQLenPdf::14                     2                       # What write queue length does an incoming req see
system.mem_ctrls0.wrQLenPdf::15                174906                       # What write queue length does an incoming req see
system.mem_ctrls0.wrQLenPdf::16                181980                       # What write queue length does an incoming req see
system.mem_ctrls0.wrQLenPdf::17                204051                       # What write queue length does an incoming req see
system.mem_ctrls0.wrQLenPdf::18                205496                       # What write queue length does an incoming req see
system.mem_ctrls0.wrQLenPdf::19                205608                       # What write queue length does an incoming req see
system.mem_ctrls0.wrQLenPdf::20                205740                       # What write queue length does an incoming req see
system.mem_ctrls0.wrQLenPdf::21                205769                       # What write queue length does an incoming req see
system.mem_ctrls0.wrQLenPdf::22                206061                       # What write queue length does an incoming req see
system.mem_ctrls0.wrQLenPdf::23                207812                       # What write queue length does an incoming req see
system.mem_ctrls0.wrQLenPdf::24                206059                       # What write queue length does an incoming req see
system.mem_ctrls0.wrQLenPdf::25                205704                       # What write queue length does an incoming req see
system.mem_ctrls0.wrQLenPdf::26                205715                       # What write queue length does an incoming req see
system.mem_ctrls0.wrQLenPdf::27                205725                       # What write queue length does an incoming req see
system.mem_ctrls0.wrQLenPdf::28                205830                       # What write queue length does an incoming req see
system.mem_ctrls0.wrQLenPdf::29                206304                       # What write queue length does an incoming req see
system.mem_ctrls0.wrQLenPdf::30                208455                       # What write queue length does an incoming req see
system.mem_ctrls0.wrQLenPdf::31                205293                       # What write queue length does an incoming req see
system.mem_ctrls0.wrQLenPdf::32                205266                       # What write queue length does an incoming req see
system.mem_ctrls0.wrQLenPdf::33                    92                       # What write queue length does an incoming req see
system.mem_ctrls0.wrQLenPdf::34                    10                       # What write queue length does an incoming req see
system.mem_ctrls0.wrQLenPdf::35                     1                       # What write queue length does an incoming req see
system.mem_ctrls0.wrQLenPdf::36                     0                       # What write queue length does an incoming req see
system.mem_ctrls0.wrQLenPdf::37                     0                       # What write queue length does an incoming req see
system.mem_ctrls0.wrQLenPdf::38                     0                       # What write queue length does an incoming req see
system.mem_ctrls0.wrQLenPdf::39                     0                       # What write queue length does an incoming req see
system.mem_ctrls0.wrQLenPdf::40                     0                       # What write queue length does an incoming req see
system.mem_ctrls0.wrQLenPdf::41                     0                       # What write queue length does an incoming req see
system.mem_ctrls0.wrQLenPdf::42                     0                       # What write queue length does an incoming req see
system.mem_ctrls0.wrQLenPdf::43                     0                       # What write queue length does an incoming req see
system.mem_ctrls0.wrQLenPdf::44                     0                       # What write queue length does an incoming req see
system.mem_ctrls0.wrQLenPdf::45                     0                       # What write queue length does an incoming req see
system.mem_ctrls0.wrQLenPdf::46                     0                       # What write queue length does an incoming req see
system.mem_ctrls0.wrQLenPdf::47                     0                       # What write queue length does an incoming req see
system.mem_ctrls0.wrQLenPdf::48                     0                       # What write queue length does an incoming req see
system.mem_ctrls0.wrQLenPdf::49                     0                       # What write queue length does an incoming req see
system.mem_ctrls0.wrQLenPdf::50                     0                       # What write queue length does an incoming req see
system.mem_ctrls0.wrQLenPdf::51                     0                       # What write queue length does an incoming req see
system.mem_ctrls0.wrQLenPdf::52                     0                       # What write queue length does an incoming req see
system.mem_ctrls0.wrQLenPdf::53                     0                       # What write queue length does an incoming req see
system.mem_ctrls0.wrQLenPdf::54                     0                       # What write queue length does an incoming req see
system.mem_ctrls0.wrQLenPdf::55                     0                       # What write queue length does an incoming req see
system.mem_ctrls0.wrQLenPdf::56                     0                       # What write queue length does an incoming req see
system.mem_ctrls0.wrQLenPdf::57                     0                       # What write queue length does an incoming req see
system.mem_ctrls0.wrQLenPdf::58                     0                       # What write queue length does an incoming req see
system.mem_ctrls0.wrQLenPdf::59                     0                       # What write queue length does an incoming req see
system.mem_ctrls0.wrQLenPdf::60                     0                       # What write queue length does an incoming req see
system.mem_ctrls0.wrQLenPdf::61                     0                       # What write queue length does an incoming req see
system.mem_ctrls0.wrQLenPdf::62                     0                       # What write queue length does an incoming req see
system.mem_ctrls0.wrQLenPdf::63                     0                       # What write queue length does an incoming req see
system.mem_ctrls0.bytesPerActivate::samples      7902017                       # Bytes accessed per row activation
system.mem_ctrls0.bytesPerActivate::mean   100.883796                       # Bytes accessed per row activation
system.mem_ctrls0.bytesPerActivate::gmean    83.468268                       # Bytes accessed per row activation
system.mem_ctrls0.bytesPerActivate::stdev    91.409046                       # Bytes accessed per row activation
system.mem_ctrls0.bytesPerActivate::0-127      5949734     75.29%     75.29% # Bytes accessed per row activation
system.mem_ctrls0.bytesPerActivate::128-255      1380573     17.47%     92.77% # Bytes accessed per row activation
system.mem_ctrls0.bytesPerActivate::256-383       327874      4.15%     96.91% # Bytes accessed per row activation
system.mem_ctrls0.bytesPerActivate::384-511       137652      1.74%     98.66% # Bytes accessed per row activation
system.mem_ctrls0.bytesPerActivate::512-639        65548      0.83%     99.49% # Bytes accessed per row activation
system.mem_ctrls0.bytesPerActivate::640-767        25241      0.32%     99.81% # Bytes accessed per row activation
system.mem_ctrls0.bytesPerActivate::768-895         8508      0.11%     99.91% # Bytes accessed per row activation
system.mem_ctrls0.bytesPerActivate::896-1023         3925      0.05%     99.96% # Bytes accessed per row activation
system.mem_ctrls0.bytesPerActivate::1024-1151         2962      0.04%    100.00% # Bytes accessed per row activation
system.mem_ctrls0.bytesPerActivate::total      7902017                       # Bytes accessed per row activation
system.mem_ctrls0.rdPerTurnAround::samples       205257                       # Reads before turning the bus around for writes
system.mem_ctrls0.rdPerTurnAround::mean     42.893192                       # Reads before turning the bus around for writes
system.mem_ctrls0.rdPerTurnAround::gmean    41.232313                       # Reads before turning the bus around for writes
system.mem_ctrls0.rdPerTurnAround::stdev    53.338254                       # Reads before turning the bus around for writes
system.mem_ctrls0.rdPerTurnAround::0-1023       205255    100.00%    100.00% # Reads before turning the bus around for writes
system.mem_ctrls0.rdPerTurnAround::1024-2047            1      0.00%    100.00% # Reads before turning the bus around for writes
system.mem_ctrls0.rdPerTurnAround::23552-24575            1      0.00%    100.00% # Reads before turning the bus around for writes
system.mem_ctrls0.rdPerTurnAround::total       205257                       # Reads before turning the bus around for writes
system.mem_ctrls0.wrPerTurnAround::samples       205257                       # Writes before turning the bus around for reads
system.mem_ctrls0.wrPerTurnAround::mean     17.791744                       # Writes before turning the bus around for reads
system.mem_ctrls0.wrPerTurnAround::gmean    17.777347                       # Writes before turning the bus around for reads
system.mem_ctrls0.wrPerTurnAround::stdev     0.700002                       # Writes before turning the bus around for reads
system.mem_ctrls0.wrPerTurnAround::16           23022     11.22%     11.22% # Writes before turning the bus around for reads
system.mem_ctrls0.wrPerTurnAround::17            6374      3.11%     14.32% # Writes before turning the bus around for reads
system.mem_ctrls0.wrPerTurnAround::18          166759     81.24%     95.57% # Writes before turning the bus around for reads
system.mem_ctrls0.wrPerTurnAround::19            8578      4.18%     99.74% # Writes before turning the bus around for reads
system.mem_ctrls0.wrPerTurnAround::20             489      0.24%     99.98% # Writes before turning the bus around for reads
system.mem_ctrls0.wrPerTurnAround::21              33      0.02%    100.00% # Writes before turning the bus around for reads
system.mem_ctrls0.wrPerTurnAround::22               1      0.00%    100.00% # Writes before turning the bus around for reads
system.mem_ctrls0.wrPerTurnAround::31               1      0.00%    100.00% # Writes before turning the bus around for reads
system.mem_ctrls0.wrPerTurnAround::total       205257                       # Writes before turning the bus around for reads
system.mem_ctrls0.totQLat                190559658406                       # Total ticks spent queuing
system.mem_ctrls0.totMemAccLat           355637658406                       # Total ticks spent from burst creation until serviced by the DRAM
system.mem_ctrls0.totBusLat               44020800000                       # Total ticks spent in databus transfers
system.mem_ctrls0.avgQLat                    21644.27                       # Average queueing delay per DRAM burst
system.mem_ctrls0.avgBusLat                   5000.00                       # Average bus latency per DRAM burst
system.mem_ctrls0.avgMemAccLat               40394.27                       # Average memory access latency per DRAM burst
system.mem_ctrls0.avgRdBW                      138.18                       # Average DRAM read bandwidth in MiByte/s
system.mem_ctrls0.avgWrBW                       57.31                       # Average achieved write bandwidth in MiByte/s
system.mem_ctrls0.avgRdBWSys                   138.24                       # Average system read bandwidth in MiByte/s
system.mem_ctrls0.avgWrBWSys                    57.32                       # Average system write bandwidth in MiByte/s
system.mem_ctrls0.peakBW                     12800.00                       # Theoretical peak bandwidth in MiByte/s
system.mem_ctrls0.busUtil                        1.53                       # Data bus utilization in percentage
system.mem_ctrls0.busUtilRead                    1.08                       # Data bus utilization in percentage for reads
system.mem_ctrls0.busUtilWrite                   0.45                       # Data bus utilization in percentage for writes
system.mem_ctrls0.avgRdQLen                      1.05                       # Average read queue length when enqueuing
system.mem_ctrls0.avgWrQLen                     24.56                       # Average write queue length when enqueuing
system.mem_ctrls0.readRowHits                 4488479                       # Number of row buffer hits during reads
system.mem_ctrls0.writeRowHits                  65539                       # Number of row buffer hits during writes
system.mem_ctrls0.readRowHitRate                50.98                       # Row buffer hit rate for reads
system.mem_ctrls0.writeRowHitRate                1.79                       # Row buffer hit rate for writes
system.mem_ctrls0.avgGap                    327273.53                       # Average gap between requests
system.mem_ctrls0.pageHitRate                   36.56                       # Row buffer hit rate, read and write combined
system.mem_ctrls0_0.actEnergy             28277848620                       # Energy for activate commands per rank (pJ)
system.mem_ctrls0_0.preEnergy             15030014010                       # Energy for precharge commands per rank (pJ)
system.mem_ctrls0_0.readEnergy            31545705240                       # Energy for read commands per rank (pJ)
system.mem_ctrls0_0.writeEnergy            9571235400                       # Energy for write commands per rank (pJ)
system.mem_ctrls0_0.refreshEnergy        323243478480.000061                       # Energy for refresh commands per rank (pJ)
system.mem_ctrls0_0.actBackEnergy        219349071240                       # Energy for active background per rank (pJ)
system.mem_ctrls0_0.preBackEnergy          8219314080                       # Energy for precharge background per rank (pJ)
system.mem_ctrls0_0.actPowerDownEnergy   1328361604350                       # Energy for active power-down per rank (pJ)
system.mem_ctrls0_0.prePowerDownEnergy   223795500000                       # Energy for precharge power-down per rank (pJ)
system.mem_ctrls0_0.selfRefreshEnergy     26450361990                       # Energy for self refresh per rank (pJ)
system.mem_ctrls0_0.totalEnergy          2213894772420                       # Total energy per rank (pJ)
system.mem_ctrls0_0.averagePower           542.910775                       # Core power per rank (mW)
system.mem_ctrls0_0.totalIdleTime        3575280040612                       # Total Idle time Per DRAM Rank
system.mem_ctrls0_0.memoryStateTime::IDLE   6468965292                       # Time in different power states
system.mem_ctrls0_0.memoryStateTime::REF 136821158000                       # Time in different power states
system.mem_ctrls0_0.memoryStateTime::SREF  79404038034                       # Time in different power states
system.mem_ctrls0_0.memoryStateTime::PRE_PDN 582800828212                       # Time in different power states
system.mem_ctrls0_0.memoryStateTime::ACT 359253495639                       # Time in different power states
system.mem_ctrls0_0.memoryStateTime::ACT_PDN 2913075833598                       # Time in different power states
system.mem_ctrls0_1.actEnergy             28142588460                       # Energy for activate commands per rank (pJ)
system.mem_ctrls0_1.preEnergy             14958140505                       # Energy for precharge commands per rank (pJ)
system.mem_ctrls0_1.readEnergy            31315997160                       # Energy for read commands per rank (pJ)
system.mem_ctrls0_1.writeEnergy            9491578200                       # Energy for write commands per rank (pJ)
system.mem_ctrls0_1.refreshEnergy        323264990880.000061                       # Energy for refresh commands per rank (pJ)
system.mem_ctrls0_1.actBackEnergy        220059584220                       # Energy for active background per rank (pJ)
system.mem_ctrls0_1.preBackEnergy          8237015040                       # Energy for precharge background per rank (pJ)
system.mem_ctrls0_1.actPowerDownEnergy   1323933374100                       # Energy for active power-down per rank (pJ)
system.mem_ctrls0_1.prePowerDownEnergy   226190429280                       # Energy for precharge power-down per rank (pJ)
system.mem_ctrls0_1.selfRefreshEnergy     27062546025                       # Energy for self refresh per rank (pJ)
system.mem_ctrls0_1.totalEnergy          2212709976510                       # Total energy per rank (pJ)
system.mem_ctrls0_1.averagePower           542.620227                       # Core power per rank (mW)
system.mem_ctrls0_1.totalIdleTime        3573674949415                       # Total Idle time Per DRAM Rank
system.mem_ctrls0_1.memoryStateTime::IDLE   6558092292                       # Time in different power states
system.mem_ctrls0_1.memoryStateTime::REF 136831650000                       # Time in different power states
system.mem_ctrls0_1.memoryStateTime::SREF  81267198027                       # Time in different power states
system.mem_ctrls0_1.memoryStateTime::PRE_PDN 589039447843                       # Time in different power states
system.mem_ctrls0_1.memoryStateTime::ACT 360758786072                       # Time in different power states
system.mem_ctrls0_1.memoryStateTime::ACT_PDN 2903369144541                       # Time in different power states
system.mem_ctrls1.pwrStateResidencyTicks::UNDEFINED 131030820843507                       # Cumulative time (in ticks) in various power states
system.mem_ctrls1.bytes_read::cpu.data            128                       # Number of bytes read from this memory
system.mem_ctrls1.bytes_read::switch_cpus.inst       696640                       # Number of bytes read from this memory
system.mem_ctrls1.bytes_read::switch_cpus.data    364081472                       # Number of bytes read from this memory
system.mem_ctrls1.bytes_read::switch_cpus_1.inst       484928                       # Number of bytes read from this memory
system.mem_ctrls1.bytes_read::switch_cpus_1.data    199564864                       # Number of bytes read from this memory
system.mem_ctrls1.bytes_read::total         564828032                       # Number of bytes read from this memory
system.mem_ctrls1.bytes_inst_read::switch_cpus.inst       696640                       # Number of instructions bytes read from this memory
system.mem_ctrls1.bytes_inst_read::switch_cpus_1.inst       484928                       # Number of instructions bytes read from this memory
system.mem_ctrls1.bytes_inst_read::total      1181568                       # Number of instructions bytes read from this memory
system.mem_ctrls1.bytes_written::writebacks    233293696                       # Number of bytes written to this memory
system.mem_ctrls1.bytes_written::total      233293696                       # Number of bytes written to this memory
system.mem_ctrls1.num_reads::cpu.data               2                       # Number of read requests responded to by this memory
system.mem_ctrls1.num_reads::switch_cpus.inst        10885                       # Number of read requests responded to by this memory
system.mem_ctrls1.num_reads::switch_cpus.data      5688773                       # Number of read requests responded to by this memory
system.mem_ctrls1.num_reads::switch_cpus_1.inst         7577                       # Number of read requests responded to by this memory
system.mem_ctrls1.num_reads::switch_cpus_1.data      3118201                       # Number of read requests responded to by this memory
system.mem_ctrls1.num_reads::total            8825438                       # Number of read requests responded to by this memory
system.mem_ctrls1.num_writes::writebacks      3645214                       # Number of write requests responded to by this memory
system.mem_ctrls1.num_writes::total           3645214                       # Number of write requests responded to by this memory
system.mem_ctrls1.bw_read::cpu.data                31                       # Total read bandwidth from this memory (bytes/s)
system.mem_ctrls1.bw_read::switch_cpus.inst       170836                       # Total read bandwidth from this memory (bytes/s)
system.mem_ctrls1.bw_read::switch_cpus.data     89283266                       # Total read bandwidth from this memory (bytes/s)
system.mem_ctrls1.bw_read::switch_cpus_1.inst       118918                       # Total read bandwidth from this memory (bytes/s)
system.mem_ctrls1.bw_read::switch_cpus_1.data     48939054                       # Total read bandwidth from this memory (bytes/s)
system.mem_ctrls1.bw_read::total            138512105                       # Total read bandwidth from this memory (bytes/s)
system.mem_ctrls1.bw_inst_read::switch_cpus.inst       170836                       # Instruction read bandwidth from this memory (bytes/s)
system.mem_ctrls1.bw_inst_read::switch_cpus_1.inst       118918                       # Instruction read bandwidth from this memory (bytes/s)
system.mem_ctrls1.bw_inst_read::total          289755                       # Instruction read bandwidth from this memory (bytes/s)
system.mem_ctrls1.bw_write::writebacks       57210335                       # Write bandwidth from this memory (bytes/s)
system.mem_ctrls1.bw_write::total            57210335                       # Write bandwidth from this memory (bytes/s)
system.mem_ctrls1.bw_total::writebacks       57210335                       # Total bandwidth to/from this memory (bytes/s)
system.mem_ctrls1.bw_total::cpu.data               31                       # Total bandwidth to/from this memory (bytes/s)
system.mem_ctrls1.bw_total::switch_cpus.inst       170836                       # Total bandwidth to/from this memory (bytes/s)
system.mem_ctrls1.bw_total::switch_cpus.data     89283266                       # Total bandwidth to/from this memory (bytes/s)
system.mem_ctrls1.bw_total::switch_cpus_1.inst       118918                       # Total bandwidth to/from this memory (bytes/s)
system.mem_ctrls1.bw_total::switch_cpus_1.data     48939054                       # Total bandwidth to/from this memory (bytes/s)
system.mem_ctrls1.bw_total::total           195722441                       # Total bandwidth to/from this memory (bytes/s)
system.mem_ctrls1.readReqs                    8825438                       # Number of read requests accepted
system.mem_ctrls1.writeReqs                   3645214                       # Number of write requests accepted
system.mem_ctrls1.readBursts                  8825438                       # Number of DRAM read bursts, including those serviced by the write queue
system.mem_ctrls1.writeBursts                 3645214                       # Number of DRAM write bursts, including those merged in the write queue
system.mem_ctrls1.bytesReadDRAM             564576512                       # Total number of bytes read from DRAM
system.mem_ctrls1.bytesReadWrQ                 251520                       # Total number of bytes read from write queue
system.mem_ctrls1.bytesWritten              233292672                       # Total number of bytes written to DRAM
system.mem_ctrls1.bytesReadSys              564828032                       # Total read bytes from the system interface side
system.mem_ctrls1.bytesWrittenSys           233293696                       # Total written bytes from the system interface side
system.mem_ctrls1.servicedByWrQ                  3930                       # Number of DRAM read bursts serviced by the write queue
system.mem_ctrls1.mergedWrBursts                    0                       # Number of DRAM write bursts merged with an existing one
system.mem_ctrls1.neitherReadNorWriteReqs            0                       # Number of requests that are neither read nor write
system.mem_ctrls1.perBankRdBursts::0           545898                       # Per bank write bursts
system.mem_ctrls1.perBankRdBursts::1           552986                       # Per bank write bursts
system.mem_ctrls1.perBankRdBursts::2           552694                       # Per bank write bursts
system.mem_ctrls1.perBankRdBursts::3           542449                       # Per bank write bursts
system.mem_ctrls1.perBankRdBursts::4           535051                       # Per bank write bursts
system.mem_ctrls1.perBankRdBursts::5           556330                       # Per bank write bursts
system.mem_ctrls1.perBankRdBursts::6           570688                       # Per bank write bursts
system.mem_ctrls1.perBankRdBursts::7           562612                       # Per bank write bursts
system.mem_ctrls1.perBankRdBursts::8           578913                       # Per bank write bursts
system.mem_ctrls1.perBankRdBursts::9           559686                       # Per bank write bursts
system.mem_ctrls1.perBankRdBursts::10          538195                       # Per bank write bursts
system.mem_ctrls1.perBankRdBursts::11          539967                       # Per bank write bursts
system.mem_ctrls1.perBankRdBursts::12          535208                       # Per bank write bursts
system.mem_ctrls1.perBankRdBursts::13          549361                       # Per bank write bursts
system.mem_ctrls1.perBankRdBursts::14          555700                       # Per bank write bursts
system.mem_ctrls1.perBankRdBursts::15          545770                       # Per bank write bursts
system.mem_ctrls1.perBankWrBursts::0           225348                       # Per bank write bursts
system.mem_ctrls1.perBankWrBursts::1           225137                       # Per bank write bursts
system.mem_ctrls1.perBankWrBursts::2           226910                       # Per bank write bursts
system.mem_ctrls1.perBankWrBursts::3           221880                       # Per bank write bursts
system.mem_ctrls1.perBankWrBursts::4           223212                       # Per bank write bursts
system.mem_ctrls1.perBankWrBursts::5           228563                       # Per bank write bursts
system.mem_ctrls1.perBankWrBursts::6           237083                       # Per bank write bursts
system.mem_ctrls1.perBankWrBursts::7           231031                       # Per bank write bursts
system.mem_ctrls1.perBankWrBursts::8           240684                       # Per bank write bursts
system.mem_ctrls1.perBankWrBursts::9           226118                       # Per bank write bursts
system.mem_ctrls1.perBankWrBursts::10          227245                       # Per bank write bursts
system.mem_ctrls1.perBankWrBursts::11          225982                       # Per bank write bursts
system.mem_ctrls1.perBankWrBursts::12          220564                       # Per bank write bursts
system.mem_ctrls1.perBankWrBursts::13          227199                       # Per bank write bursts
system.mem_ctrls1.perBankWrBursts::14          230772                       # Per bank write bursts
system.mem_ctrls1.perBankWrBursts::15          227470                       # Per bank write bursts
system.mem_ctrls1.numRdRetry                        0                       # Number of times read queue was full causing retry
system.mem_ctrls1.numWrRetry                        0                       # Number of times write queue was full causing retry
system.mem_ctrls1.totGap                 4077823831263                       # Total gap between requests
system.mem_ctrls1.readPktSize::0                    0                       # Read request sizes (log2)
system.mem_ctrls1.readPktSize::1                    0                       # Read request sizes (log2)
system.mem_ctrls1.readPktSize::2                    0                       # Read request sizes (log2)
system.mem_ctrls1.readPktSize::3                    0                       # Read request sizes (log2)
system.mem_ctrls1.readPktSize::4                    0                       # Read request sizes (log2)
system.mem_ctrls1.readPktSize::5                    0                       # Read request sizes (log2)
system.mem_ctrls1.readPktSize::6              8825438                       # Read request sizes (log2)
system.mem_ctrls1.writePktSize::0                   0                       # Write request sizes (log2)
system.mem_ctrls1.writePktSize::1                   0                       # Write request sizes (log2)
system.mem_ctrls1.writePktSize::2                   0                       # Write request sizes (log2)
system.mem_ctrls1.writePktSize::3                   0                       # Write request sizes (log2)
system.mem_ctrls1.writePktSize::4                   0                       # Write request sizes (log2)
system.mem_ctrls1.writePktSize::5                   0                       # Write request sizes (log2)
system.mem_ctrls1.writePktSize::6             3645214                       # Write request sizes (log2)
system.mem_ctrls1.rdQLenPdf::0                8201890                       # What read queue length does an incoming req see
system.mem_ctrls1.rdQLenPdf::1                 549104                       # What read queue length does an incoming req see
system.mem_ctrls1.rdQLenPdf::2                  66473                       # What read queue length does an incoming req see
system.mem_ctrls1.rdQLenPdf::3                   4038                       # What read queue length does an incoming req see
system.mem_ctrls1.rdQLenPdf::4                      3                       # What read queue length does an incoming req see
system.mem_ctrls1.rdQLenPdf::5                      0                       # What read queue length does an incoming req see
system.mem_ctrls1.rdQLenPdf::6                      0                       # What read queue length does an incoming req see
system.mem_ctrls1.rdQLenPdf::7                      0                       # What read queue length does an incoming req see
system.mem_ctrls1.rdQLenPdf::8                      0                       # What read queue length does an incoming req see
system.mem_ctrls1.rdQLenPdf::9                      0                       # What read queue length does an incoming req see
system.mem_ctrls1.rdQLenPdf::10                     0                       # What read queue length does an incoming req see
system.mem_ctrls1.rdQLenPdf::11                     0                       # What read queue length does an incoming req see
system.mem_ctrls1.rdQLenPdf::12                     0                       # What read queue length does an incoming req see
system.mem_ctrls1.rdQLenPdf::13                     0                       # What read queue length does an incoming req see
system.mem_ctrls1.rdQLenPdf::14                     0                       # What read queue length does an incoming req see
system.mem_ctrls1.rdQLenPdf::15                     0                       # What read queue length does an incoming req see
system.mem_ctrls1.rdQLenPdf::16                     0                       # What read queue length does an incoming req see
system.mem_ctrls1.rdQLenPdf::17                     0                       # What read queue length does an incoming req see
system.mem_ctrls1.rdQLenPdf::18                     0                       # What read queue length does an incoming req see
system.mem_ctrls1.rdQLenPdf::19                     0                       # What read queue length does an incoming req see
system.mem_ctrls1.rdQLenPdf::20                     0                       # What read queue length does an incoming req see
system.mem_ctrls1.rdQLenPdf::21                     0                       # What read queue length does an incoming req see
system.mem_ctrls1.rdQLenPdf::22                     0                       # What read queue length does an incoming req see
system.mem_ctrls1.rdQLenPdf::23                     0                       # What read queue length does an incoming req see
system.mem_ctrls1.rdQLenPdf::24                     0                       # What read queue length does an incoming req see
system.mem_ctrls1.rdQLenPdf::25                     0                       # What read queue length does an incoming req see
system.mem_ctrls1.rdQLenPdf::26                     0                       # What read queue length does an incoming req see
system.mem_ctrls1.rdQLenPdf::27                     0                       # What read queue length does an incoming req see
system.mem_ctrls1.rdQLenPdf::28                     0                       # What read queue length does an incoming req see
system.mem_ctrls1.rdQLenPdf::29                     0                       # What read queue length does an incoming req see
system.mem_ctrls1.rdQLenPdf::30                     0                       # What read queue length does an incoming req see
system.mem_ctrls1.rdQLenPdf::31                     0                       # What read queue length does an incoming req see
system.mem_ctrls1.wrQLenPdf::0                      2                       # What write queue length does an incoming req see
system.mem_ctrls1.wrQLenPdf::1                      2                       # What write queue length does an incoming req see
system.mem_ctrls1.wrQLenPdf::2                      2                       # What write queue length does an incoming req see
system.mem_ctrls1.wrQLenPdf::3                      2                       # What write queue length does an incoming req see
system.mem_ctrls1.wrQLenPdf::4                      2                       # What write queue length does an incoming req see
system.mem_ctrls1.wrQLenPdf::5                      2                       # What write queue length does an incoming req see
system.mem_ctrls1.wrQLenPdf::6                      2                       # What write queue length does an incoming req see
system.mem_ctrls1.wrQLenPdf::7                      2                       # What write queue length does an incoming req see
system.mem_ctrls1.wrQLenPdf::8                      2                       # What write queue length does an incoming req see
system.mem_ctrls1.wrQLenPdf::9                      2                       # What write queue length does an incoming req see
system.mem_ctrls1.wrQLenPdf::10                     2                       # What write queue length does an incoming req see
system.mem_ctrls1.wrQLenPdf::11                     2                       # What write queue length does an incoming req see
system.mem_ctrls1.wrQLenPdf::12                     2                       # What write queue length does an incoming req see
system.mem_ctrls1.wrQLenPdf::13                     2                       # What write queue length does an incoming req see
system.mem_ctrls1.wrQLenPdf::14                     2                       # What write queue length does an incoming req see
system.mem_ctrls1.wrQLenPdf::15                174637                       # What write queue length does an incoming req see
system.mem_ctrls1.wrQLenPdf::16                181762                       # What write queue length does an incoming req see
system.mem_ctrls1.wrQLenPdf::17                203588                       # What write queue length does an incoming req see
system.mem_ctrls1.wrQLenPdf::18                205104                       # What write queue length does an incoming req see
system.mem_ctrls1.wrQLenPdf::19                205297                       # What write queue length does an incoming req see
system.mem_ctrls1.wrQLenPdf::20                205321                       # What write queue length does an incoming req see
system.mem_ctrls1.wrQLenPdf::21                205398                       # What write queue length does an incoming req see
system.mem_ctrls1.wrQLenPdf::22                205652                       # What write queue length does an incoming req see
system.mem_ctrls1.wrQLenPdf::23                207364                       # What write queue length does an incoming req see
system.mem_ctrls1.wrQLenPdf::24                205679                       # What write queue length does an incoming req see
system.mem_ctrls1.wrQLenPdf::25                205347                       # What write queue length does an incoming req see
system.mem_ctrls1.wrQLenPdf::26                205326                       # What write queue length does an incoming req see
system.mem_ctrls1.wrQLenPdf::27                205343                       # What write queue length does an incoming req see
system.mem_ctrls1.wrQLenPdf::28                205450                       # What write queue length does an incoming req see
system.mem_ctrls1.wrQLenPdf::29                205926                       # What write queue length does an incoming req see
system.mem_ctrls1.wrQLenPdf::30                208098                       # What write queue length does an incoming req see
system.mem_ctrls1.wrQLenPdf::31                204920                       # What write queue length does an incoming req see
system.mem_ctrls1.wrQLenPdf::32                204883                       # What write queue length does an incoming req see
system.mem_ctrls1.wrQLenPdf::33                    80                       # What write queue length does an incoming req see
system.mem_ctrls1.wrQLenPdf::34                     8                       # What write queue length does an incoming req see
system.mem_ctrls1.wrQLenPdf::35                     1                       # What write queue length does an incoming req see
system.mem_ctrls1.wrQLenPdf::36                     0                       # What write queue length does an incoming req see
system.mem_ctrls1.wrQLenPdf::37                     0                       # What write queue length does an incoming req see
system.mem_ctrls1.wrQLenPdf::38                     0                       # What write queue length does an incoming req see
system.mem_ctrls1.wrQLenPdf::39                     0                       # What write queue length does an incoming req see
system.mem_ctrls1.wrQLenPdf::40                     0                       # What write queue length does an incoming req see
system.mem_ctrls1.wrQLenPdf::41                     0                       # What write queue length does an incoming req see
system.mem_ctrls1.wrQLenPdf::42                     0                       # What write queue length does an incoming req see
system.mem_ctrls1.wrQLenPdf::43                     0                       # What write queue length does an incoming req see
system.mem_ctrls1.wrQLenPdf::44                     0                       # What write queue length does an incoming req see
system.mem_ctrls1.wrQLenPdf::45                     0                       # What write queue length does an incoming req see
system.mem_ctrls1.wrQLenPdf::46                     0                       # What write queue length does an incoming req see
system.mem_ctrls1.wrQLenPdf::47                     0                       # What write queue length does an incoming req see
system.mem_ctrls1.wrQLenPdf::48                     0                       # What write queue length does an incoming req see
system.mem_ctrls1.wrQLenPdf::49                     0                       # What write queue length does an incoming req see
system.mem_ctrls1.wrQLenPdf::50                     0                       # What write queue length does an incoming req see
system.mem_ctrls1.wrQLenPdf::51                     0                       # What write queue length does an incoming req see
system.mem_ctrls1.wrQLenPdf::52                     0                       # What write queue length does an incoming req see
system.mem_ctrls1.wrQLenPdf::53                     0                       # What write queue length does an incoming req see
system.mem_ctrls1.wrQLenPdf::54                     0                       # What write queue length does an incoming req see
system.mem_ctrls1.wrQLenPdf::55                     0                       # What write queue length does an incoming req see
system.mem_ctrls1.wrQLenPdf::56                     0                       # What write queue length does an incoming req see
system.mem_ctrls1.wrQLenPdf::57                     0                       # What write queue length does an incoming req see
system.mem_ctrls1.wrQLenPdf::58                     0                       # What write queue length does an incoming req see
system.mem_ctrls1.wrQLenPdf::59                     0                       # What write queue length does an incoming req see
system.mem_ctrls1.wrQLenPdf::60                     0                       # What write queue length does an incoming req see
system.mem_ctrls1.wrQLenPdf::61                     0                       # What write queue length does an incoming req see
system.mem_ctrls1.wrQLenPdf::62                     0                       # What write queue length does an incoming req see
system.mem_ctrls1.wrQLenPdf::63                     0                       # What write queue length does an incoming req see
system.mem_ctrls1.bytesPerActivate::samples      7892214                       # Bytes accessed per row activation
system.mem_ctrls1.bytesPerActivate::mean   101.095728                       # Bytes accessed per row activation
system.mem_ctrls1.bytesPerActivate::gmean    83.577338                       # Bytes accessed per row activation
system.mem_ctrls1.bytesPerActivate::stdev    91.700994                       # Bytes accessed per row activation
system.mem_ctrls1.bytesPerActivate::0-127      5934155     75.19%     75.19% # Bytes accessed per row activation
system.mem_ctrls1.bytesPerActivate::128-255      1384153     17.54%     92.73% # Bytes accessed per row activation
system.mem_ctrls1.bytesPerActivate::256-383       327085      4.14%     96.87% # Bytes accessed per row activation
system.mem_ctrls1.bytesPerActivate::384-511       139116      1.76%     98.64% # Bytes accessed per row activation
system.mem_ctrls1.bytesPerActivate::512-639        66943      0.85%     99.48% # Bytes accessed per row activation
system.mem_ctrls1.bytesPerActivate::640-767        25522      0.32%     99.81% # Bytes accessed per row activation
system.mem_ctrls1.bytesPerActivate::768-895         8436      0.11%     99.91% # Bytes accessed per row activation
system.mem_ctrls1.bytesPerActivate::896-1023         3851      0.05%     99.96% # Bytes accessed per row activation
system.mem_ctrls1.bytesPerActivate::1024-1151         2953      0.04%    100.00% # Bytes accessed per row activation
system.mem_ctrls1.bytesPerActivate::total      7892214                       # Bytes accessed per row activation
system.mem_ctrls1.rdPerTurnAround::samples       204878                       # Reads before turning the bus around for writes
system.mem_ctrls1.rdPerTurnAround::mean     43.057337                       # Reads before turning the bus around for writes
system.mem_ctrls1.rdPerTurnAround::stdev    55.419472                       # Reads before turning the bus around for writes
system.mem_ctrls1.rdPerTurnAround::0-1023       204877    100.00%    100.00% # Reads before turning the bus around for writes
system.mem_ctrls1.rdPerTurnAround::23552-24575            1      0.00%    100.00% # Reads before turning the bus around for writes
system.mem_ctrls1.rdPerTurnAround::total       204878                       # Reads before turning the bus around for writes
system.mem_ctrls1.wrPerTurnAround::samples       204878                       # Writes before turning the bus around for reads
system.mem_ctrls1.wrPerTurnAround::mean     17.792042                       # Writes before turning the bus around for reads
system.mem_ctrls1.wrPerTurnAround::gmean    17.777656                       # Writes before turning the bus around for reads
system.mem_ctrls1.wrPerTurnAround::stdev     0.699630                       # Writes before turning the bus around for reads
system.mem_ctrls1.wrPerTurnAround::16           22936     11.19%     11.19% # Writes before turning the bus around for reads
system.mem_ctrls1.wrPerTurnAround::17            6398      3.12%     14.32% # Writes before turning the bus around for reads
system.mem_ctrls1.wrPerTurnAround::18          166503     81.27%     95.59% # Writes before turning the bus around for reads
system.mem_ctrls1.wrPerTurnAround::19            8454      4.13%     99.71% # Writes before turning the bus around for reads
system.mem_ctrls1.wrPerTurnAround::20             555      0.27%     99.98% # Writes before turning the bus around for reads
system.mem_ctrls1.wrPerTurnAround::21              31      0.02%    100.00% # Writes before turning the bus around for reads
system.mem_ctrls1.wrPerTurnAround::25               1      0.00%    100.00% # Writes before turning the bus around for reads
system.mem_ctrls1.wrPerTurnAround::total       204878                       # Writes before turning the bus around for reads
system.mem_ctrls1.totQLat                190779656365                       # Total ticks spent queuing
system.mem_ctrls1.totMemAccLat           356182931365                       # Total ticks spent from burst creation until serviced by the DRAM
system.mem_ctrls1.totBusLat               44107540000                       # Total ticks spent in databus transfers
system.mem_ctrls1.avgQLat                    21626.65                       # Average queueing delay per DRAM burst
system.mem_ctrls1.avgBusLat                   5000.00                       # Average bus latency per DRAM burst
system.mem_ctrls1.avgMemAccLat               40376.65                       # Average memory access latency per DRAM burst
system.mem_ctrls1.avgRdBW                      138.45                       # Average DRAM read bandwidth in MiByte/s
system.mem_ctrls1.avgWrBW                       57.21                       # Average achieved write bandwidth in MiByte/s
system.mem_ctrls1.avgRdBWSys                   138.51                       # Average system read bandwidth in MiByte/s
system.mem_ctrls1.avgWrBWSys                    57.21                       # Average system write bandwidth in MiByte/s
system.mem_ctrls1.peakBW                     12800.00                       # Theoretical peak bandwidth in MiByte/s
system.mem_ctrls1.busUtil                        1.53                       # Data bus utilization in percentage
system.mem_ctrls1.busUtilRead                    1.08                       # Data bus utilization in percentage for reads
system.mem_ctrls1.busUtilWrite                   0.45                       # Data bus utilization in percentage for writes
system.mem_ctrls1.avgRdQLen                      1.05                       # Average read queue length when enqueuing
system.mem_ctrls1.avgWrQLen                     24.55                       # Average write queue length when enqueuing
system.mem_ctrls1.readRowHits                 4509185                       # Number of row buffer hits during reads
system.mem_ctrls1.writeRowHits                  65306                       # Number of row buffer hits during writes
system.mem_ctrls1.readRowHitRate                51.12                       # Row buffer hit rate for reads
system.mem_ctrls1.writeRowHitRate                1.79                       # Row buffer hit rate for writes
system.mem_ctrls1.avgGap                    326993.64                       # Average gap between requests
system.mem_ctrls1.pageHitRate                   36.69                       # Row buffer hit rate, read and write combined
system.mem_ctrls1_0.actEnergy             28171941000                       # Energy for activate commands per rank (pJ)
system.mem_ctrls1_0.preEnergy             14973737955                       # Energy for precharge commands per rank (pJ)
system.mem_ctrls1_0.readEnergy            31549575120                       # Energy for read commands per rank (pJ)
system.mem_ctrls1_0.writeEnergy            9496036080                       # Energy for write commands per rank (pJ)
system.mem_ctrls1_0.refreshEnergy        323245322400.000061                       # Energy for refresh commands per rank (pJ)
system.mem_ctrls1_0.actBackEnergy        219044863950                       # Energy for active background per rank (pJ)
system.mem_ctrls1_0.preBackEnergy          8200136640                       # Energy for precharge background per rank (pJ)
system.mem_ctrls1_0.actPowerDownEnergy   1329366397500                       # Energy for active power-down per rank (pJ)
system.mem_ctrls1_0.prePowerDownEnergy   223974506400                       # Energy for precharge power-down per rank (pJ)
system.mem_ctrls1_0.selfRefreshEnergy     25835137755                       # Energy for self refresh per rank (pJ)
system.mem_ctrls1_0.totalEnergy          2213909130720                       # Total energy per rank (pJ)
system.mem_ctrls1_0.averagePower           542.914296                       # Core power per rank (mW)
system.mem_ctrls1_0.totalIdleTime        3576004952900                       # Total Idle time Per DRAM Rank
system.mem_ctrls1_0.memoryStateTime::IDLE   6409398356                       # Time in different power states
system.mem_ctrls1_0.memoryStateTime::REF 136820096000                       # Time in different power states
system.mem_ctrls1_0.memoryStateTime::SREF  77449591394                       # Time in different power states
system.mem_ctrls1_0.memoryStateTime::PRE_PDN 583268864080                       # Time in different power states
system.mem_ctrls1_0.memoryStateTime::ACT 358589692888                       # Time in different power states
system.mem_ctrls1_0.memoryStateTime::ACT_PDN 2915286676057                       # Time in different power states
system.mem_ctrls1_1.actEnergy             28178474100                       # Energy for activate commands per rank (pJ)
system.mem_ctrls1_1.preEnergy             14977214175                       # Energy for precharge commands per rank (pJ)
system.mem_ctrls1_1.readEnergy            31435992000                       # Energy for read commands per rank (pJ)
system.mem_ctrls1_1.writeEnergy            9531897480                       # Energy for write commands per rank (pJ)
system.mem_ctrls1_1.refreshEnergy        323343664800.000061                       # Energy for refresh commands per rank (pJ)
system.mem_ctrls1_1.actBackEnergy        219548706900                       # Energy for active background per rank (pJ)
system.mem_ctrls1_1.preBackEnergy          8253981600                       # Energy for precharge background per rank (pJ)
system.mem_ctrls1_1.actPowerDownEnergy   1324521148410                       # Energy for active power-down per rank (pJ)
system.mem_ctrls1_1.prePowerDownEnergy   226111585440                       # Energy for precharge power-down per rank (pJ)
system.mem_ctrls1_1.selfRefreshEnergy     27136115010                       # Energy for self refresh per rank (pJ)
system.mem_ctrls1_1.totalEnergy          2213093603175                       # Total energy per rank (pJ)
system.mem_ctrls1_1.averagePower           542.714303                       # Core power per rank (mW)
system.mem_ctrls1_1.totalIdleTime        3574739799843                       # Total Idle time Per DRAM Rank
system.mem_ctrls1_1.memoryStateTime::IDLE   6592785839                       # Time in different power states
system.mem_ctrls1_1.memoryStateTime::REF 136866124000                       # Time in different power states
system.mem_ctrls1_1.memoryStateTime::SREF  81257320975                       # Time in different power states
system.mem_ctrls1_1.memoryStateTime::PRE_PDN 588833429704                       # Time in different power states
system.mem_ctrls1_1.memoryStateTime::ACT 359625496043                       # Time in different power states
system.mem_ctrls1_1.memoryStateTime::ACT_PDN 2904649162214                       # Time in different power states
system.pwrStateResidencyTicks::UNDEFINED 131030820843507                       # Cumulative time (in ticks) in various power states
system.cpu.branchPred.lookups                       3                       # Number of BP lookups
system.cpu.branchPred.condPredicted                 3                       # Number of conditional branches predicted
system.cpu.branchPred.condIncorrect                 1                       # Number of conditional branches incorrect
system.cpu.branchPred.BTBLookups                    0                       # Number of BTB lookups
system.cpu.branchPred.BTBHits                       0                       # Number of BTB hits
system.cpu.branchPred.BTBCorrect                    0                       # Number of correct BTB predictions (this stat may not work properly.
system.cpu.branchPred.BTBHitPct                   nan                       # BTB Hit Percentage
system.cpu.branchPred.usedRAS                       0                       # Number of times the RAS was used to get a target.
system.cpu.branchPred.RASInCorrect                  0                       # Number of incorrect RAS predictions.
system.cpu.branchPred.indirectLookups               0                       # Number of indirect predictor lookups.
system.cpu.branchPred.indirectHits                  0                       # Number of indirect target hits.
system.cpu.branchPred.indirectMisses                0                       # Number of indirect misses.
system.cpu.branchPredindirectMispredicted            0                       # Number of mispredicted indirect branches.
system.cpu_voltage_domain.voltage                   1                       # Voltage in Volts
system.cpu_clk_domain.clock                       333                       # Clock period in ticks
system.cpu.dtb.fetch_hits                           0                       # ITB hits
system.cpu.dtb.fetch_misses                         0                       # ITB misses
system.cpu.dtb.fetch_acv                            0                       # ITB acv
system.cpu.dtb.fetch_accesses                       0                       # ITB accesses
system.cpu.dtb.read_hits                            2                       # DTB read hits
system.cpu.dtb.read_misses                          0                       # DTB read misses
system.cpu.dtb.read_acv                             0                       # DTB read access violations
system.cpu.dtb.read_accesses                        2                       # DTB read accesses
system.cpu.dtb.write_hits                           0                       # DTB write hits
system.cpu.dtb.write_misses                         0                       # DTB write misses
system.cpu.dtb.write_acv                            0                       # DTB write access violations
system.cpu.dtb.write_accesses                       0                       # DTB write accesses
system.cpu.dtb.data_hits                            2                       # DTB hits
system.cpu.dtb.data_misses                          0                       # DTB misses
system.cpu.dtb.data_acv                             0                       # DTB access violations
system.cpu.dtb.data_accesses                        2                       # DTB accesses
system.cpu.itb.fetch_hits                           3                       # ITB hits
system.cpu.itb.fetch_misses                         0                       # ITB misses
system.cpu.itb.fetch_acv                            0                       # ITB acv
system.cpu.itb.fetch_accesses                       3                       # ITB accesses
system.cpu.itb.read_hits                            0                       # DTB read hits
system.cpu.itb.read_misses                          0                       # DTB read misses
system.cpu.itb.read_acv                             0                       # DTB read access violations
system.cpu.itb.read_accesses                        0                       # DTB read accesses
system.cpu.itb.write_hits                           0                       # DTB write hits
system.cpu.itb.write_misses                         0                       # DTB write misses
system.cpu.itb.write_acv                            0                       # DTB write access violations
system.cpu.itb.write_accesses                       0                       # DTB write accesses
system.cpu.itb.data_hits                            0                       # DTB hits
system.cpu.itb.data_misses                          0                       # DTB misses
system.cpu.itb.data_acv                             0                       # DTB access violations
system.cpu.itb.data_accesses                        0                       # DTB accesses
system.cpu.workload.num_syscalls                    2                       # Number of system calls
system.cpu.pwrStateResidencyTicks::ON    4077824318775                       # Cumulative time (in ticks) in various power states
system.cpu.numCycles                              493                       # number of cpu cycles simulated
system.cpu.numWorkItemsStarted                      0                       # number of work items this cpu started
system.cpu.numWorkItemsCompleted                    0                       # number of work items this cpu completed
system.cpu.fetch.icacheStallCycles                 19                       # Number of cycles fetch is stalled on an Icache miss
system.cpu.fetch.Insts                              9                       # Number of instructions fetch has processed
system.cpu.fetch.Branches                           3                       # Number of branches that fetch encountered
system.cpu.fetch.Cycles                             2                       # Number of cycles fetch has run and was not squashing or blocked
system.cpu.fetch.SquashCycles                       5                       # Number of cycles fetch has spent squashing
system.cpu.fetch.PendingDrainCycles                 3                       # Number of cycles fetch has spent waiting on pipes to drain
system.cpu.fetch.CacheLines                         3                       # Number of cache lines fetched
system.cpu.fetch.IcacheSquashes                     2                       # Number of outstanding Icache misses that were squashed
system.cpu.fetch.rateDist::samples                 26                       # Number of instructions fetched each cycle (Total)
system.cpu.fetch.rateDist::mean              0.346154                       # Number of instructions fetched each cycle (Total)
system.cpu.fetch.rateDist::stdev             1.573336                       # Number of instructions fetched each cycle (Total)
system.cpu.fetch.rateDist::underflows               0      0.00%      0.00% # Number of instructions fetched each cycle (Total)
system.cpu.fetch.rateDist::0                       24     92.31%     92.31% # Number of instructions fetched each cycle (Total)
system.cpu.fetch.rateDist::1                        1      3.85%     96.15% # Number of instructions fetched each cycle (Total)
system.cpu.fetch.rateDist::2                        0      0.00%     96.15% # Number of instructions fetched each cycle (Total)
system.cpu.fetch.rateDist::3                        0      0.00%     96.15% # Number of instructions fetched each cycle (Total)
system.cpu.fetch.rateDist::4                        0      0.00%     96.15% # Number of instructions fetched each cycle (Total)
system.cpu.fetch.rateDist::5                        0      0.00%     96.15% # Number of instructions fetched each cycle (Total)
system.cpu.fetch.rateDist::6                        0      0.00%     96.15% # Number of instructions fetched each cycle (Total)
system.cpu.fetch.rateDist::7                        0      0.00%     96.15% # Number of instructions fetched each cycle (Total)
system.cpu.fetch.rateDist::8                        1      3.85%    100.00% # Number of instructions fetched each cycle (Total)
system.cpu.fetch.rateDist::overflows                0      0.00%    100.00% # Number of instructions fetched each cycle (Total)
system.cpu.fetch.rateDist::min_value                0                       # Number of instructions fetched each cycle (Total)
system.cpu.fetch.rateDist::max_value                8                       # Number of instructions fetched each cycle (Total)
system.cpu.fetch.rateDist::total                   26                       # Number of instructions fetched each cycle (Total)
system.cpu.fetch.branchRate                  0.006085                       # Number of branch fetches per cycle
system.cpu.fetch.rate                        0.018256                       # Number of inst fetches per cycle
system.cpu.decode.IdleCycles                       21                       # Number of cycles decode is idle
[...]
system.switch_cpus_1.iq.int_inst_queue_wakeup_accesses    810593171                       # Number of integer instruction queue wakeup accesses
system.switch_cpus_1.iq.fp_inst_queue_reads    176174247                       # Number of floating instruction queue reads
system.switch_cpus_1.iq.fp_inst_queue_writes    288168865                       # Number of floating instruction queue writes
system.switch_cpus_1.iq.fp_inst_queue_wakeup_accesses     72259340                       # Number of floating instruction queue wakeup accesses
system.switch_cpus_1.iq.int_alu_accesses    889408959                       # Number of integer alu accesses
system.switch_cpus_1.iq.fp_alu_accesses      88578809                       # Number of floating point alu accesses
system.switch_cpus_1.iew.lsq.thread0.forwLoads     23734622                       # Number of loads that had data forwarded from stores
system.switch_cpus_1.iew.lsq.thread0.invAddrLoads            0                       # Number of loads ignored due to an invalid address
system.switch_cpus_1.iew.lsq.thread0.squashedLoads    175024405                       # Number of loads squashed
system.switch_cpus_1.iew.lsq.thread0.ignoredResponses        66442                       # Number of memory responses ignored because the instruction is squashed
system.switch_cpus_1.iew.lsq.thread0.memOrderViolation        28361                       # Number of memory ordering violations
system.switch_cpus_1.iew.lsq.thread0.squashedStores     75611002                       # Number of stores squashed
system.switch_cpus_1.iew.lsq.thread0.invAddrSwpfs            0                       # Number of software prefetches ignored due to an invalid address
system.switch_cpus_1.iew.lsq.thread0.blockedLoads            0                       # Number of blocked loads due to partial load-store forwarding
system.switch_cpus_1.iew.lsq.thread0.rescheduledLoads         1274                       # Number of loads that were rescheduled
system.switch_cpus_1.iew.lsq.thread0.cacheBlocked      6970334                       # Number of times an access to memory failed due to the cache being blocked
system.switch_cpus_1.iew.iewIdleCycles              0                       # Number of cycles IEW is idle
system.switch_cpus_1.iew.iewSquashCycles      9698101                       # Number of cycles IEW is squashing
system.switch_cpus_1.iew.iewBlockCycles     647127022                       # Number of cycles IEW is blocking
system.switch_cpus_1.iew.iewUnblockCycles    374007953                       # Number of cycles IEW is unblocking
system.switch_cpus_1.iew.iewDispatchedInsts   1236004442                       # Number of instructions dispatched to IQ
system.switch_cpus_1.iew.iewDispSquashedInsts       333726                       # Number of squashed instructions skipped by dispatch
system.switch_cpus_1.iew.iewDispLoadInsts    294357310                       # Number of dispatched load instructions
system.switch_cpus_1.iew.iewDispStoreInsts    148658253                       # Number of dispatched store instructions
system.switch_cpus_1.iew.iewDispNonSpecInsts      1321501                       # Number of dispatched non-speculative instructions
system.switch_cpus_1.iew.iewIQFullEvents      3292296                       # Number of times the IQ has become full, causing a stall
system.switch_cpus_1.iew.iewLSQFullEvents    370023378                       # Number of times the LSQ has become full, causing a stall
system.switch_cpus_1.iew.memOrderViolationEvents        28361                       # Number of memory order violations
system.switch_cpus_1.iew.predictedTakenIncorrect      1933422                       # Number of branches that were predicted taken incorrectly
system.switch_cpus_1.iew.predictedNotTakenIncorrect      2891686                       # Number of branches that were predicted not taken incorrectly
system.switch_cpus_1.iew.branchMispredicts      4825108                       # Number of branch mispredicts detected at execute
system.switch_cpus_1.iew.iewExecutedInsts    949817572                       # Number of executed instructions
system.switch_cpus_1.iew.iewExecLoadInsts    260144619                       # Number of load instructions executed
system.switch_cpus_1.iew.iewExecSquashedInsts     10415299                       # Number of squashed instructions skipped in execute
system.switch_cpus_1.iew.exec_swp                   0                       # number of swp insts executed
system.switch_cpus_1.iew.exec_nop            58431348                       # number of nop insts executed
system.switch_cpus_1.iew.exec_refs          392129166                       # number of memory reference insts executed
system.switch_cpus_1.iew.exec_branches      183225788                       # Number of branches executed
system.switch_cpus_1.iew.exec_stores        131984547                       # Number of stores executed
system.switch_cpus_1.iew.exec_rate           0.367555                       # Inst execution rate
system.switch_cpus_1.iew.wb_sent            936011748                       # cumulative count of insts sent to commit
system.switch_cpus_1.iew.wb_count           882852511                       # cumulative count of insts written-back
system.switch_cpus_1.iew.wb_producers       447858869                       # num instructions producing a value
system.switch_cpus_1.iew.wb_consumers       657371885                       # num instructions consuming a value
system.switch_cpus_1.iew.wb_rate             0.341641                       # insts written-back per cycle
system.switch_cpus_1.iew.wb_fanout           0.681287                       # average fanout of values written-back
system.switch_cpus_1.commit.commitSquashedInsts    594905487                       # The number of squashed insts skipped by commit
system.switch_cpus_1.commit.commitNonSpecStalls      1667910                       # The number of times commit has been forced to stall to communicate backwards
system.switch_cpus_1.commit.branchMispredicts      3728888                       # The number of times a branch was mispredicted
system.switch_cpus_1.commit.committed_per_cycle::samples   2492198354                       # Number of insts commited each cycle
system.switch_cpus_1.commit.committed_per_cycle::mean     0.214263                       # Number of insts commited each cycle
system.switch_cpus_1.commit.committed_per_cycle::stdev     1.129813                       # Number of insts commited each cycle
system.switch_cpus_1.commit.committed_per_cycle::underflows            0      0.00%      0.00% # Number of insts commited each cycle
system.switch_cpus_1.commit.committed_per_cycle::0   2356781429     94.57%     94.57% # Number of insts commited each cycle
system.switch_cpus_1.commit.committed_per_cycle::1     49702333      1.99%     96.56% # Number of insts commited each cycle
system.switch_cpus_1.commit.committed_per_cycle::2     15013876      0.60%     97.16% # Number of insts commited each cycle
system.switch_cpus_1.commit.committed_per_cycle::3      9260585      0.37%     97.53% # Number of insts commited each cycle
system.switch_cpus_1.commit.committed_per_cycle::4      8217669      0.33%     97.86% # Number of insts commited each cycle
system.switch_cpus_1.commit.committed_per_cycle::5      6331604      0.25%     98.12% # Number of insts commited each cycle
system.switch_cpus_1.commit.committed_per_cycle::6      4739398      0.19%     98.31% # Number of insts commited each cycle
system.switch_cpus_1.commit.committed_per_cycle::7      3702602      0.15%     98.46% # Number of insts commited each cycle
system.switch_cpus_1.commit.committed_per_cycle::8     38448858      1.54%    100.00% # Number of insts commited each cycle
system.switch_cpus_1.commit.committed_per_cycle::overflows            0      0.00%    100.00% # Number of insts commited each cycle
system.switch_cpus_1.commit.committed_per_cycle::min_value            0                       # Number of insts commited each cycle
system.switch_cpus_1.commit.committed_per_cycle::max_value            8                       # Number of insts commited each cycle
system.switch_cpus_1.commit.committed_per_cycle::total   2492198354                       # Number of insts commited each cycle
system.switch_cpus_1.commit.committedInsts    533986002                       # Number of instructions committed
system.switch_cpus_1.commit.committedOps    533986002                       # Number of ops (including micro ops) committed
system.switch_cpus_1.commit.swp_count               0                       # Number of s/w prefetches committed
system.switch_cpus_1.commit.refs            192380151                       # Number of memory references committed
system.switch_cpus_1.commit.loads           119332903                       # Number of loads committed
system.switch_cpus_1.commit.membars            833954                       # Number of memory barriers committed
system.switch_cpus_1.commit.branches        107213906                       # Number of branches committed
system.switch_cpus_1.commit.fp_insts         48147358                       # Number of committed floating point instructions.
system.switch_cpus_1.commit.int_insts       462975860                       # Number of committed integer instructions.
system.switch_cpus_1.commit.function_calls     15694807                       # Number of function calls committed.
system.switch_cpus_1.commit.op_class_0::No_OpClass     34421006      6.45%      6.45% # Class of committed instruction
system.switch_cpus_1.commit.op_class_0::IntAlu    277415853     51.95%     58.40% # Class of committed instruction
system.switch_cpus_1.commit.op_class_0::IntMult       217703      0.04%     58.44% # Class of committed instruction
system.switch_cpus_1.commit.op_class_0::IntDiv            0      0.00%     58.44% # Class of committed instruction
system.switch_cpus_1.commit.op_class_0::FloatAdd     15713450      2.94%     61.38% # Class of committed instruction
system.switch_cpus_1.commit.op_class_0::FloatCmp     11767421      2.20%     63.59% # Class of committed instruction
system.switch_cpus_1.commit.op_class_0::FloatCvt       884671      0.17%     63.75% # Class of committed instruction
system.switch_cpus_1.commit.op_class_0::FloatMult       134182      0.03%     63.78% # Class of committed instruction
system.switch_cpus_1.commit.op_class_0::FloatMultAcc            0      0.00%     63.78% # Class of committed instruction
system.switch_cpus_1.commit.op_class_0::FloatDiv       217583      0.04%     63.82% # Class of committed instruction
system.switch_cpus_1.commit.op_class_0::FloatMisc            0      0.00%     63.82% # Class of committed instruction
system.switch_cpus_1.commit.op_class_0::FloatSqrt           28      0.00%     63.82% # Class of committed instruction
system.switch_cpus_1.commit.op_class_0::SimdAdd            0      0.00%     63.82% # Class of committed instruction
system.switch_cpus_1.commit.op_class_0::SimdAddAcc            0      0.00%     63.82% # Class of committed instruction
system.switch_cpus_1.commit.op_class_0::SimdAlu            0      0.00%     63.82% # Class of committed instruction
system.switch_cpus_1.commit.op_class_0::SimdCmp            0      0.00%     63.82% # Class of committed instruction
system.switch_cpus_1.commit.op_class_0::SimdCvt            0      0.00%     63.82% # Class of committed instruction
system.switch_cpus_1.commit.op_class_0::SimdMisc            0      0.00%     63.82% # Class of committed instruction
system.switch_cpus_1.commit.op_class_0::SimdMult            0      0.00%     63.82% # Class of committed instruction
system.switch_cpus_1.commit.op_class_0::SimdMultAcc            0      0.00%     63.82% # Class of committed instruction
system.switch_cpus_1.commit.op_class_0::SimdShift            0      0.00%     63.82% # Class of committed instruction
system.switch_cpus_1.commit.op_class_0::SimdShiftAcc            0      0.00%     63.82% # Class of committed instruction
system.switch_cpus_1.commit.op_class_0::SimdSqrt            0      0.00%     63.82% # Class of committed instruction
system.switch_cpus_1.commit.op_class_0::SimdFloatAdd            0      0.00%     63.82% # Class of committed instruction
system.switch_cpus_1.commit.op_class_0::SimdFloatAlu            0      0.00%     63.82% # Class of committed instruction
system.switch_cpus_1.commit.op_class_0::SimdFloatCmp            0      0.00%     63.82% # Class of committed instruction
system.switch_cpus_1.commit.op_class_0::SimdFloatCvt            0      0.00%     63.82% # Class of committed instruction
system.switch_cpus_1.commit.op_class_0::SimdFloatDiv            0      0.00%     63.82% # Class of committed instruction
system.switch_cpus_1.commit.op_class_0::SimdFloatMisc            0      0.00%     63.82% # Class of committed instruction
system.switch_cpus_1.commit.op_class_0::SimdFloatMult            0      0.00%     63.82% # Class of committed instruction
system.switch_cpus_1.commit.op_class_0::SimdFloatMultAcc            0      0.00%     63.82% # Class of committed instruction
system.switch_cpus_1.commit.op_class_0::SimdFloatSqrt            0      0.00%     63.82% # Class of committed instruction
system.switch_cpus_1.commit.op_class_0::MemRead    105009503     19.67%     83.48% # Class of committed instruction
system.switch_cpus_1.commit.op_class_0::MemWrite     68774579     12.88%     96.36% # Class of committed instruction
system.switch_cpus_1.commit.op_class_0::FloatMemRead     15157354      2.84%     99.20% # Class of committed instruction
system.switch_cpus_1.commit.op_class_0::FloatMemWrite      4272669      0.80%    100.00% # Class of committed instruction
system.switch_cpus_1.commit.op_class_0::IprAccess            0      0.00%    100.00% # Class of committed instruction
system.switch_cpus_1.commit.op_class_0::InstPrefetch            0      0.00%    100.00% # Class of committed instruction
system.switch_cpus_1.commit.op_class_0::total    533986002                       # Class of committed instruction
system.switch_cpus_1.commit.bw_lim_events     38448858                       # number cycles where commit BW limit reached
system.switch_cpus_1.rob.rob_reads         3505331649                       # The number of ROB reads
system.switch_cpus_1.rob.rob_writes        2340084434                       # The number of ROB writes
system.switch_cpus_1.timesIdled                 63401                       # Number of times that the entire CPU went into an idle state and unscheduled itself
system.switch_cpus_1.idleCycles               9785439                       # Total number of cycles that the CPU has spent unscheduled due to idling
system.switch_cpus_1.committedInsts         500000006                       # Number of Instructions Simulated
system.switch_cpus_1.committedOps           500000006                       # Number of Ops (including micro ops) Simulated
system.switch_cpus_1.cpi                     5.168299                       # CPI: Cycles Per Instruction
system.switch_cpus_1.cpi_total               5.168299                       # CPI: Total CPI of All Threads
system.switch_cpus_1.ipc                     0.193487                       # IPC: Instructions Per Cycle
system.switch_cpus_1.ipc_total               0.193487                       # IPC: Total IPC of All Threads
system.switch_cpus_1.int_regfile_reads     1205492763                       # number of integer regfile reads
system.switch_cpus_1.int_regfile_writes     554029498                       # number of integer regfile writes
system.switch_cpus_1.fp_regfile_reads        65971012                       # number of floating regfile reads
system.switch_cpus_1.fp_regfile_writes       49791756                       # number of floating regfile writes
system.switch_cpus_1.misc_regfile_reads       2316062                       # number of misc regfile reads
system.switch_cpus_1.misc_regfile_writes      1885412                       # number of misc regfile writes
system.tol3bus.snoop_filter.tot_requests     56832528                       # Total number of requests made to the snoop filter.
system.tol3bus.snoop_filter.hit_single_requests     28417567                       # Number of requests hitting in the snoop filter with a single holder of the requested data.
system.tol3bus.snoop_filter.hit_multi_requests            0                       # Number of requests hitting in the snoop filter with multiple (>1) holders of the requested data.
system.tol3bus.snoop_filter.tot_snoops          24611                       # Total number of snoops made to the snoop filter.
system.tol3bus.snoop_filter.hit_single_snoops        24611                       # Number of snoops hitting in the snoop filter with a single holder of the requested data.
system.tol3bus.snoop_filter.hit_multi_snoops            0                       # Number of snoops hitting in the snoop filter with multiple (>1) holders of the requested data.
system.tol3bus.pwrStateResidencyTicks::UNDEFINED 131030820843507                       # Cumulative time (in ticks) in various power states
system.tol3bus.trans_dist::ReadResp          24298373                       # Transaction distribution
system.tol3bus.trans_dist::WritebackDirty     21461288                       # Transaction distribution
system.tol3bus.trans_dist::CleanEvict        24524347                       # Transaction distribution
system.tol3bus.trans_dist::UpgradeReq            2481                       # Transaction distribution
system.tol3bus.trans_dist::UpgradeResp           2481                       # Transaction distribution
system.tol3bus.trans_dist::ReadExReq          4116588                       # Transaction distribution
system.tol3bus.trans_dist::ReadExResp         4116588                       # Transaction distribution
system.tol3bus.trans_dist::ReadSharedReq     24298373                       # Transaction distribution
system.tol3bus.pkt_count_system.cpu.l2.mem_side::system.l3.cpu_side     85249970                       # Packet count per connected master and slave (bytes)
system.tol3bus.pkt_size_system.cpu.l2.mem_side::system.l3.cpu_side   2725064192                       # Cumulative packet size per connected master and slave (bytes)
system.tol3bus.snoops                        17570549                       # Total snoops (count)
system.tol3bus.snoopTraffic                 467015744                       # Total snoop traffic (bytes)
system.tol3bus.snoop_fanout::samples         45987991                       # Request fanout histogram
system.tol3bus.snoop_fanout::mean            0.000535                       # Request fanout histogram
system.tol3bus.snoop_fanout::stdev           0.023127                       # Request fanout histogram
system.tol3bus.snoop_fanout::underflows             0      0.00%      0.00% # Request fanout histogram
system.tol3bus.snoop_fanout::0               45963380     99.95%     99.95% # Request fanout histogram
system.tol3bus.snoop_fanout::1                  24611      0.05%    100.00% # Request fanout histogram
system.tol3bus.snoop_fanout::overflows              0      0.00%    100.00% # Request fanout histogram
system.tol3bus.snoop_fanout::min_value              0                       # Request fanout histogram
system.tol3bus.snoop_fanout::max_value              1                       # Request fanout histogram
system.tol3bus.snoop_fanout::total           45987991                       # Request fanout histogram
system.tol3bus.reqLayer0.occupancy        23641899435                       # Layer occupancy (ticks)
system.tol3bus.reqLayer0.utilization              0.6                       # Layer utilization (%)
system.tol3bus.respLayer0.occupancy       18925190199                       # Layer occupancy (ticks)
system.tol3bus.respLayer0.utilization             0.5                       # Layer utilization (%)

---------- End Simulation Statistics   ----------
