
---------- Begin Simulation Statistics ----------
sim_seconds                                  6.390103                       # Number of seconds simulated
sim_ticks                                6390102917916                       # Number of ticks simulated
final_tick                               26375204277783                       # Number of ticks from beginning of simulation (restored from checkpoints and never reset)
sim_freq                                 1000000000000                       # Frequency of simulated ticks
host_inst_rate                                 100288                       # Simulator instruction rate (inst/s)
host_op_rate                                   100288                       # Simulator op (including micro ops) rate (op/s)
host_tick_rate                              534044184                       # Simulator tick rate (ticks/s)
host_mem_usage                                2453528                       # Number of bytes of host memory used
host_seconds                                 11965.49                       # Real time elapsed on the host
sim_insts                                  1200000007                       # Number of instructions simulated
sim_ops                                    1200000007                       # Number of ops (including micro ops) simulated
system.voltage_domain.voltage                       1                       # Voltage in Volts
system.clk_domain.clock                          1000                       # Clock period in ticks
system.mem_ctrls0.pwrStateResidencyTicks::UNDEFINED 26375204277783                       # Cumulative time (in ticks) in various power states
system.mem_ctrls0.bytes_read::cpu.inst             64                       # Number of bytes read from this memory
system.mem_ctrls0.bytes_read::cpu.data             64                       # Number of bytes read from this memory
system.mem_ctrls0.bytes_read::switch_cpus.inst         1152                       # Number of bytes read from this memory
system.mem_ctrls0.bytes_read::switch_cpus.data    909918080                       # Number of bytes read from this memory
system.mem_ctrls0.bytes_read::switch_cpus_1.data    185463104                       # Number of bytes read from this memory
system.mem_ctrls0.bytes_read::total        1095382464                       # Number of bytes read from this memory
system.mem_ctrls0.bytes_inst_read::cpu.inst           64                       # Number of instructions bytes read from this memory
system.mem_ctrls0.bytes_inst_read::switch_cpus.inst         1152                       # Number of instructions bytes read from this memory
system.mem_ctrls0.bytes_inst_read::total         1216                       # Number of instructions bytes read from this memory
system.mem_ctrls0.bytes_written::writebacks    788699328                       # Number of bytes written to this memory
system.mem_ctrls0.bytes_written::total      788699328                       # Number of bytes written to this memory
system.mem_ctrls0.num_reads::cpu.inst               1                       # Number of read requests responded to by this memory
system.mem_ctrls0.num_reads::cpu.data               1                       # Number of read requests responded to by this memory
system.mem_ctrls0.num_reads::switch_cpus.inst           18                       # Number of read requests responded to by this memory
system.mem_ctrls0.num_reads::switch_cpus.data     14217470                       # Number of read requests responded to by this memory
system.mem_ctrls0.num_reads::switch_cpus_1.data      2897861                       # Number of read requests responded to by this memory
system.mem_ctrls0.num_reads::total           17115351                       # Number of read requests responded to by this memory
system.mem_ctrls0.num_writes::writebacks     12323427                       # Number of write requests responded to by this memory
system.mem_ctrls0.num_writes::total          12323427                       # Number of write requests responded to by this memory
system.mem_ctrls0.bw_read::cpu.inst                10                       # Total read bandwidth from this memory (bytes/s)
system.mem_ctrls0.bw_read::cpu.data                10                       # Total read bandwidth from this memory (bytes/s)
system.mem_ctrls0.bw_read::switch_cpus.inst          180                       # Total read bandwidth from this memory (bytes/s)
system.mem_ctrls0.bw_read::switch_cpus.data    142394902                       # Total read bandwidth from this memory (bytes/s)
system.mem_ctrls0.bw_read::switch_cpus_1.data     29023492                       # Total read bandwidth from this memory (bytes/s)
system.mem_ctrls0.bw_read::total            171418595                       # Total read bandwidth from this memory (bytes/s)
system.mem_ctrls0.bw_inst_read::cpu.inst           10                       # Instruction read bandwidth from this memory (bytes/s)
system.mem_ctrls0.bw_inst_read::switch_cpus.inst          180                       # Instruction read bandwidth from this memory (bytes/s)
system.mem_ctrls0.bw_inst_read::total             190                       # Instruction read bandwidth from this memory (bytes/s)
system.mem_ctrls0.bw_write::writebacks      123425137                       # Write bandwidth from this memory (bytes/s)
system.mem_ctrls0.bw_write::total           123425137                       # Write bandwidth from this memory (bytes/s)
system.mem_ctrls0.bw_total::writebacks      123425137                       # Total bandwidth to/from this memory (bytes/s)
system.mem_ctrls0.bw_total::cpu.inst               10                       # Total bandwidth to/from this memory (bytes/s)
system.mem_ctrls0.bw_total::cpu.data               10                       # Total bandwidth to/from this memory (bytes/s)
system.mem_ctrls0.bw_total::switch_cpus.inst          180                       # Total bandwidth to/from this memory (bytes/s)
system.mem_ctrls0.bw_total::switch_cpus.data    142394902                       # Total bandwidth to/from this memory (bytes/s)
system.mem_ctrls0.bw_total::switch_cpus_1.data     29023492                       # Total bandwidth to/from this memory (bytes/s)
system.mem_ctrls0.bw_total::total           294843732                       # Total bandwidth to/from this memory (bytes/s)
system.mem_ctrls0.readReqs                   17115351                       # Number of read requests accepted
system.mem_ctrls0.writeReqs                  12323427                       # Number of write requests accepted
system.mem_ctrls0.readBursts                 17115351                       # Number of DRAM read bursts, including those serviced by the write queue
system.mem_ctrls0.writeBursts                12323427                       # Number of DRAM write bursts, including those merged in the write queue
system.mem_ctrls0.bytesReadDRAM            1095382464                       # Total number of bytes read from DRAM
system.mem_ctrls0.bytesReadWrQ                      0                       # Total number of bytes read from write queue
system.mem_ctrls0.bytesWritten              788697408                       # Total number of bytes written to DRAM
system.mem_ctrls0.bytesReadSys             1095382464                       # Total read bytes from the system interface side
system.mem_ctrls0.bytesWrittenSys           788699328                       # Total written bytes from the system interface side
system.mem_ctrls0.servicedByWrQ                     0                       # Number of DRAM read bursts serviced by the write queue
system.mem_ctrls0.mergedWrBursts                    0                       # Number of DRAM write bursts merged with an existing one
system.mem_ctrls0.neitherReadNorWriteReqs            0                       # Number of requests that are neither read nor write
system.mem_ctrls0.perBankRdBursts::0          1068867                       # Per bank write bursts
system.mem_ctrls0.perBankRdBursts::1          1069440                       # Per bank write bursts
system.mem_ctrls0.perBankRdBursts::2          1069686                       # Per bank write bursts
system.mem_ctrls0.perBankRdBursts::3          1070692                       # Per bank write bursts
system.mem_ctrls0.perBankRdBursts::4          1070866                       # Per bank write bursts
system.mem_ctrls0.perBankRdBursts::5          1071359                       # Per bank write bursts
system.mem_ctrls0.perBankRdBursts::6          1070701                       # Per bank write bursts
system.mem_ctrls0.perBankRdBursts::7          1071750                       # Per bank write bursts
system.mem_ctrls0.perBankRdBursts::8          1070120                       # Per bank write bursts
system.mem_ctrls0.perBankRdBursts::9          1069742                       # Per bank write bursts
system.mem_ctrls0.perBankRdBursts::10         1069095                       # Per bank write bursts
system.mem_ctrls0.perBankRdBursts::11         1069202                       # Per bank write bursts
system.mem_ctrls0.perBankRdBursts::12         1068751                       # Per bank write bursts
system.mem_ctrls0.perBankRdBursts::13         1067712                       # Per bank write bursts
system.mem_ctrls0.perBankRdBursts::14         1068765                       # Per bank write bursts
system.mem_ctrls0.perBankRdBursts::15         1068603                       # Per bank write bursts
system.mem_ctrls0.perBankWrBursts::0           769690                       # Per bank write bursts
system.mem_ctrls0.perBankWrBursts::1           770265                       # Per bank write bursts
system.mem_ctrls0.perBankWrBursts::2           770348                       # Per bank write bursts
system.mem_ctrls0.perBankWrBursts::3           771182                       # Per bank write bursts
system.mem_ctrls0.perBankWrBursts::4           771290                       # Per bank write bursts
system.mem_ctrls0.perBankWrBursts::5           771670                       # Per bank write bursts
system.mem_ctrls0.perBankWrBursts::6           770938                       # Per bank write bursts
system.mem_ctrls0.perBankWrBursts::7           771943                       # Per bank write bursts
system.mem_ctrls0.perBankWrBursts::8           770276                       # Per bank write bursts
system.mem_ctrls0.perBankWrBursts::9           769885                       # Per bank write bursts
system.mem_ctrls0.perBankWrBursts::10          769452                       # Per bank write bursts
system.mem_ctrls0.perBankWrBursts::11          769701                       # Per bank write bursts
system.mem_ctrls0.perBankWrBursts::12          769137                       # Per bank write bursts
system.mem_ctrls0.perBankWrBursts::13          768551                       # Per bank write bursts
system.mem_ctrls0.perBankWrBursts::14          769609                       # Per bank write bursts
system.mem_ctrls0.perBankWrBursts::15          769460                       # Per bank write bursts
system.mem_ctrls0.numRdRetry                        0                       # Number of times read queue was full causing retry
system.mem_ctrls0.numWrRetry                        0                       # Number of times write queue was full causing retry
system.mem_ctrls0.totGap                 6390102697470                       # Total gap between requests
system.mem_ctrls0.readPktSize::0                    0                       # Read request sizes (log2)
system.mem_ctrls0.readPktSize::1                    0                       # Read request sizes (log2)
system.mem_ctrls0.readPktSize::2                    0                       # Read request sizes (log2)
system.mem_ctrls0.readPktSize::3                    0                       # Read request sizes (log2)
system.mem_ctrls0.readPktSize::4                    0                       # Read request sizes (log2)
system.mem_ctrls0.readPktSize::5                    0                       # Read request sizes (log2)
system.mem_ctrls0.readPktSize::6             17115351                       # Read request sizes (log2)
system.mem_ctrls0.writePktSize::0                   0                       # Write request sizes (log2)
system.mem_ctrls0.writePktSize::1                   0                       # Write request sizes (log2)
system.mem_ctrls0.writePktSize::2                   0                       # Write request sizes (log2)
system.mem_ctrls0.writePktSize::3                   0                       # Write request sizes (log2)
system.mem_ctrls0.writePktSize::4                   0                       # Write request sizes (log2)
system.mem_ctrls0.writePktSize::5                   0                       # Write request sizes (log2)
system.mem_ctrls0.writePktSize::6            12323427                       # Write request sizes (log2)
system.mem_ctrls0.rdQLenPdf::0               16167995                       # What read queue length does an incoming req see
system.mem_ctrls0.rdQLenPdf::1                 766200                       # What read queue length does an incoming req see
system.mem_ctrls0.rdQLenPdf::2                 171677                       # What read queue length does an incoming req see
system.mem_ctrls0.rdQLenPdf::3                   9479                       # What read queue length does an incoming req see
system.mem_ctrls0.rdQLenPdf::4                      0                       # What read queue length does an incoming req see
system.mem_ctrls0.rdQLenPdf::5                      0                       # What read queue length does an incoming req see
system.mem_ctrls0.rdQLenPdf::6                      0                       # What read queue length does an incoming req see
system.mem_ctrls0.rdQLenPdf::7                      0                       # What read queue length does an incoming req see
system.mem_ctrls0.rdQLenPdf::8                      0                       # What read queue length does an incoming req see
system.mem_ctrls0.rdQLenPdf::9                      0                       # What read queue length does an incoming req see
system.mem_ctrls0.rdQLenPdf::10                     0                       # What read queue length does an incoming req see
system.mem_ctrls0.rdQLenPdf::11                     0                       # What read queue length does an incoming req see
system.mem_ctrls0.rdQLenPdf::12                     0                       # What read queue length does an incoming req see
system.mem_ctrls0.rdQLenPdf::13                     0                       # What read queue length does an incoming req see
system.mem_ctrls0.rdQLenPdf::14                     0                       # What read queue length does an incoming req see
system.mem_ctrls0.rdQLenPdf::15                     0                       # What read queue length does an incoming req see
system.mem_ctrls0.rdQLenPdf::16                     0                       # What read queue length does an incoming req see
system.mem_ctrls0.rdQLenPdf::17                     0                       # What read queue length does an incoming req see
system.mem_ctrls0.rdQLenPdf::18                     0                       # What read queue length does an incoming req see
system.mem_ctrls0.rdQLenPdf::19                     0                       # What read queue length does an incoming req see
system.mem_ctrls0.rdQLenPdf::20                     0                       # What read queue length does an incoming req see
system.mem_ctrls0.rdQLenPdf::21                     0                       # What read queue length does an incoming req see
system.mem_ctrls0.rdQLenPdf::22                     0                       # What read queue length does an incoming req see
system.mem_ctrls0.rdQLenPdf::23                     0                       # What read queue length does an incoming req see
system.mem_ctrls0.rdQLenPdf::24                     0                       # What read queue length does an incoming req see
system.mem_ctrls0.rdQLenPdf::25                     0                       # What read queue length does an incoming req see
system.mem_ctrls0.rdQLenPdf::26                     0                       # What read queue length does an incoming req see
system.mem_ctrls0.rdQLenPdf::27                     0                       # What read queue length does an incoming req see
system.mem_ctrls0.rdQLenPdf::28                     0                       # What read queue length does an incoming req see
system.mem_ctrls0.rdQLenPdf::29                     0                       # What read queue length does an incoming req see
system.mem_ctrls0.rdQLenPdf::30                     0                       # What read queue length does an incoming req see
system.mem_ctrls0.rdQLenPdf::31                     0                       # What read queue length does an incoming req see
system.mem_ctrls0.wrQLenPdf::0                      2                       # What write queue length does an incoming req see
system.mem_ctrls0.wrQLenPdf::1                      2                       # What write queue length does an incoming req see
system.mem_ctrls0.wrQLenPdf::2                      2                       # What write queue length does an incoming req see
system.mem_ctrls0.wrQLenPdf::3                      2                       # What write queue length does an incoming req see
system.mem_ctrls0.wrQLenPdf::4                      2                       # What write queue length does an incoming req see
system.mem_ctrls0.wrQLenPdf::5                      2                       # What write queue length does an incoming req see
system.mem_ctrls0.wrQLenPdf::6                      2                       # What write queue length does an incoming req see
system.mem_ctrls0.wrQLenPdf::7                      2                       # What write queue length does an incoming req see
system.mem_ctrls0.wrQLenPdf::8                      2                       # What write queue length does an incoming req see
system.mem_ctrls0.wrQLenPdf::9                      2                       # What write queue length does an incoming req see
system.mem_ctrls0.wrQLenPdf::10                     2                       # What write queue length does an incoming req see
system.mem_ctrls0.wrQLenPdf::11                     2                       # What write queue length does an incoming req see
system.mem_ctrls0.wrQLenPdf::12                     2                       # What write queue length does an incoming req see
system.mem_ctrls0.wrQLenPdf::13                     2                       # What write queue length does an incoming req see
system.mem_ctrls0.wrQLenPdf::14                     2                       # What write queue length does an incoming req see
system.mem_ctrls0.wrQLenPdf::15                393843                       # What write queue length does an incoming req see
system.mem_ctrls0.wrQLenPdf::16                424895                       # What write queue length does an incoming req see
system.mem_ctrls0.wrQLenPdf::17                662416                       # What write queue length does an incoming req see
system.mem_ctrls0.wrQLenPdf::18                714267                       # What write queue length does an incoming req see
system.mem_ctrls0.wrQLenPdf::19                722781                       # What write queue length does an incoming req see
system.mem_ctrls0.wrQLenPdf::20                723475                       # What write queue length does an incoming req see
system.mem_ctrls0.wrQLenPdf::21                723859                       # What write queue length does an incoming req see
system.mem_ctrls0.wrQLenPdf::22                727592                       # What write queue length does an incoming req see
system.mem_ctrls0.wrQLenPdf::23                732433                       # What write queue length does an incoming req see
system.mem_ctrls0.wrQLenPdf::24                734481                       # What write queue length does an incoming req see
system.mem_ctrls0.wrQLenPdf::25                726339                       # What write queue length does an incoming req see
system.mem_ctrls0.wrQLenPdf::26                723808                       # What write queue length does an incoming req see
system.mem_ctrls0.wrQLenPdf::27                721870                       # What write queue length does an incoming req see
system.mem_ctrls0.wrQLenPdf::28                720917                       # What write queue length does an incoming req see
system.mem_ctrls0.wrQLenPdf::29                720717                       # What write queue length does an incoming req see
system.mem_ctrls0.wrQLenPdf::30                719390                       # What write queue length does an incoming req see
system.mem_ctrls0.wrQLenPdf::31                714442                       # What write queue length does an incoming req see
system.mem_ctrls0.wrQLenPdf::32                714276                       # What write queue length does an incoming req see
system.mem_ctrls0.wrQLenPdf::33                  1347                       # What write queue length does an incoming req see
system.mem_ctrls0.wrQLenPdf::34                   205                       # What write queue length does an incoming req see
system.mem_ctrls0.wrQLenPdf::35                    38                       # What write queue length does an incoming req see
system.mem_ctrls0.wrQLenPdf::36                     6                       # What write queue length does an incoming req see
system.mem_ctrls0.wrQLenPdf::37                     0                       # What write queue length does an incoming req see
system.mem_ctrls0.wrQLenPdf::38                     0                       # What write queue length does an incoming req see
system.mem_ctrls0.wrQLenPdf::39                     0                       # What write queue length does an incoming req see
system.mem_ctrls0.wrQLenPdf::40                     0                       # What write queue length does an incoming req see
system.mem_ctrls0.wrQLenPdf::41                     0                       # What write queue length does an incoming req see
system.mem_ctrls0.wrQLenPdf::42                     0                       # What write queue length does an incoming req see
system.mem_ctrls0.wrQLenPdf::43                     0                       # What write queue length does an incoming req see
system.mem_ctrls0.wrQLenPdf::44                     0                       # What write queue length does an incoming req see
system.mem_ctrls0.wrQLenPdf::45                     0                       # What write queue length does an incoming req see
system.mem_ctrls0.wrQLenPdf::46                     0                       # What write queue length does an incoming req see
system.mem_ctrls0.wrQLenPdf::47                     0                       # What write queue length does an incoming req see
system.mem_ctrls0.wrQLenPdf::48                     0                       # What write queue length does an incoming req see
system.mem_ctrls0.wrQLenPdf::49                     0                       # What write queue length does an incoming req see
system.mem_ctrls0.wrQLenPdf::50                     0                       # What write queue length does an incoming req see
system.mem_ctrls0.wrQLenPdf::51                     0                       # What write queue length does an incoming req see
system.mem_ctrls0.wrQLenPdf::52                     0                       # What write queue length does an incoming req see
system.mem_ctrls0.wrQLenPdf::53                     0                       # What write queue length does an incoming req see
system.mem_ctrls0.wrQLenPdf::54                     0                       # What write queue length does an incoming req see
system.mem_ctrls0.wrQLenPdf::55                     0                       # What write queue length does an incoming req see
system.mem_ctrls0.wrQLenPdf::56                     0                       # What write queue length does an incoming req see
system.mem_ctrls0.wrQLenPdf::57                     0                       # What write queue length does an incoming req see
system.mem_ctrls0.wrQLenPdf::58                     0                       # What write queue length does an incoming req see
system.mem_ctrls0.wrQLenPdf::59                     0                       # What write queue length does an incoming req see
system.mem_ctrls0.wrQLenPdf::60                     0                       # What write queue length does an incoming req see
system.mem_ctrls0.wrQLenPdf::61                     0                       # What write queue length does an incoming req see
system.mem_ctrls0.wrQLenPdf::62                     0                       # What write queue length does an incoming req see
system.mem_ctrls0.wrQLenPdf::63                     0                       # What write queue length does an incoming req see
system.mem_ctrls0.bytesPerActivate::samples     19904292                       # Bytes accessed per row activation
system.mem_ctrls0.bytesPerActivate::mean    94.656920                       # Bytes accessed per row activation
system.mem_ctrls0.bytesPerActivate::gmean    84.510006                       # Bytes accessed per row activation
system.mem_ctrls0.bytesPerActivate::stdev    55.191605                       # Bytes accessed per row activation
system.mem_ctrls0.bytesPerActivate::0-127     13546524     68.06%     68.06% # Bytes accessed per row activation
system.mem_ctrls0.bytesPerActivate::128-255      5658720     28.43%     96.49% # Bytes accessed per row activation
system.mem_ctrls0.bytesPerActivate::256-383       612497      3.08%     99.57% # Bytes accessed per row activation
system.mem_ctrls0.bytesPerActivate::384-511        70865      0.36%     99.92% # Bytes accessed per row activation
system.mem_ctrls0.bytesPerActivate::512-639        12543      0.06%     99.98% # Bytes accessed per row activation
system.mem_ctrls0.bytesPerActivate::640-767         2143      0.01%     99.99% # Bytes accessed per row activation
system.mem_ctrls0.bytesPerActivate::768-895          675      0.00%    100.00% # Bytes accessed per row activation
system.mem_ctrls0.bytesPerActivate::896-1023          228      0.00%    100.00% # Bytes accessed per row activation
system.mem_ctrls0.bytesPerActivate::1024-1151           97      0.00%    100.00% # Bytes accessed per row activation
system.mem_ctrls0.bytesPerActivate::total     19904292                       # Bytes accessed per row activation
system.mem_ctrls0.rdPerTurnAround::samples       714087                       # Reads before turning the bus around for writes
system.mem_ctrls0.rdPerTurnAround::mean     23.968131                       # Reads before turning the bus around for writes
system.mem_ctrls0.rdPerTurnAround::gmean    23.367046                       # Reads before turning the bus around for writes
system.mem_ctrls0.rdPerTurnAround::stdev    39.298849                       # Reads before turning the bus around for writes
system.mem_ctrls0.rdPerTurnAround::0-2047       714086    100.00%    100.00% # Reads before turning the bus around for writes
system.mem_ctrls0.rdPerTurnAround::32768-34815            1      0.00%    100.00% # Reads before turning the bus around for writes
system.mem_ctrls0.rdPerTurnAround::total       714087                       # Reads before turning the bus around for writes
system.mem_ctrls0.wrPerTurnAround::samples       714087                       # Writes before turning the bus around for reads
system.mem_ctrls0.wrPerTurnAround::mean     17.257557                       # Writes before turning the bus around for reads
system.mem_ctrls0.wrPerTurnAround::gmean    17.221534                       # Writes before turning the bus around for reads
system.mem_ctrls0.wrPerTurnAround::stdev     1.115687                       # Writes before turning the bus around for reads
system.mem_ctrls0.wrPerTurnAround::16          290244     40.65%     40.65% # Writes before turning the bus around for reads
system.mem_ctrls0.wrPerTurnAround::17           22531      3.16%     43.80% # Writes before turning the bus around for reads
system.mem_ctrls0.wrPerTurnAround::18          339933     47.60%     91.40% # Writes before turning the bus around for reads
system.mem_ctrls0.wrPerTurnAround::19           51340      7.19%     98.59% # Writes before turning the bus around for reads
system.mem_ctrls0.wrPerTurnAround::20            8746      1.22%     99.82% # Writes before turning the bus around for reads
system.mem_ctrls0.wrPerTurnAround::21            1164      0.16%     99.98% # Writes before turning the bus around for reads
system.mem_ctrls0.wrPerTurnAround::22             125      0.02%    100.00% # Writes before turning the bus around for reads
system.mem_ctrls0.wrPerTurnAround::23               1      0.00%    100.00% # Writes before turning the bus around for reads
system.mem_ctrls0.wrPerTurnAround::24               2      0.00%    100.00% # Writes before turning the bus around for reads
system.mem_ctrls0.wrPerTurnAround::27               1      0.00%    100.00% # Writes before turning the bus around for reads
system.mem_ctrls0.wrPerTurnAround::total       714087                       # Writes before turning the bus around for reads
system.mem_ctrls0.totQLat                456681989137                       # Total ticks spent queuing
system.mem_ctrls0.totMemAccLat           777594820387                       # Total ticks spent from burst creation until serviced by the DRAM
system.mem_ctrls0.totBusLat               85576755000                       # Total ticks spent in databus transfers
system.mem_ctrls0.avgQLat                    26682.60                       # Average queueing delay per DRAM burst
system.mem_ctrls0.avgBusLat                   5000.00                       # Average bus latency per DRAM burst
system.mem_ctrls0.avgMemAccLat               45432.60                       # Average memory access latency per DRAM burst
system.mem_ctrls0.avgRdBW                      171.42                       # Average DRAM read bandwidth in MiByte/s
system.mem_ctrls0.avgWrBW                      123.42                       # Average achieved write bandwidth in MiByte/s
system.mem_ctrls0.avgRdBWSys                   171.42                       # Average system read bandwidth in MiByte/s
system.mem_ctrls0.avgWrBWSys                   123.43                       # Average system write bandwidth in MiByte/s
system.mem_ctrls0.peakBW                     12800.00                       # Theoretical peak bandwidth in MiByte/s
system.mem_ctrls0.busUtil                        2.30                       # Data bus utilization in percentage
system.mem_ctrls0.busUtilRead                    1.34                       # Data bus utilization in percentage for reads
system.mem_ctrls0.busUtilWrite                   0.96                       # Data bus utilization in percentage for writes
system.mem_ctrls0.avgRdQLen                      1.02                       # Average read queue length when enqueuing
system.mem_ctrls0.avgWrQLen                     24.88                       # Average write queue length when enqueuing
system.mem_ctrls0.readRowHits                 7250071                       # Number of row buffer hits during reads
system.mem_ctrls0.writeRowHits                2284379                       # Number of row buffer hits during writes
system.mem_ctrls0.readRowHitRate                42.36                       # Row buffer hit rate for reads
system.mem_ctrls0.writeRowHitRate               18.54                       # Row buffer hit rate for writes
system.mem_ctrls0.avgGap                    217064.13                       # Average gap between requests
system.mem_ctrls0.pageHitRate                   32.39                       # Row buffer hit rate, read and write combined
system.mem_ctrls0_0.actEnergy             71098999020                       # Energy for activate commands per rank (pJ)
system.mem_ctrls0_0.preEnergy             37790014185                       # Energy for precharge commands per rank (pJ)
system.mem_ctrls0_0.readEnergy            61142397540                       # Energy for read commands per rank (pJ)
system.mem_ctrls0_0.writeEnergy           32193441720                       # Energy for write commands per rank (pJ)
system.mem_ctrls0_0.refreshEnergy        524659162560.000122                       # Energy for refresh commands per rank (pJ)
system.mem_ctrls0_0.actBackEnergy        613115752470                       # Energy for active background per rank (pJ)
system.mem_ctrls0_0.preBackEnergy         17269235040                       # Energy for precharge background per rank (pJ)
system.mem_ctrls0_0.actPowerDownEnergy   1752511053150                       # Energy for active power-down per rank (pJ)
system.mem_ctrls0_0.prePowerDownEnergy   380932283040                       # Energy for precharge power-down per rank (pJ)
system.mem_ctrls0_0.selfRefreshEnergy     71856840645                       # Energy for self refresh per rank (pJ)
system.mem_ctrls0_0.totalEnergy          3562809908430                       # Total energy per rank (pJ)
system.mem_ctrls0_0.averagePower           557.551236                       # Core power per rank (mW)
system.mem_ctrls0_0.totalIdleTime        5000044493154                       # Total Idle time Per DRAM Rank
system.mem_ctrls0_0.memoryStateTime::IDLE  20127437849                       # Time in different power states
system.mem_ctrls0_0.memoryStateTime::REF 222307810000                       # Time in different power states
system.mem_ctrls0_0.memoryStateTime::SREF 164806200512                       # Time in different power states
system.mem_ctrls0_0.memoryStateTime::PRE_PDN 992008453922                       # Time in different power states
system.mem_ctrls0_0.memoryStateTime::ACT 1147620954342                       # Time in different power states
system.mem_ctrls0_0.memoryStateTime::ACT_PDN 3843232061291                       # Time in different power states
system.mem_ctrls0_1.actEnergy             71017688700                       # Energy for activate commands per rank (pJ)
system.mem_ctrls0_1.preEnergy             37746773955                       # Energy for precharge commands per rank (pJ)
system.mem_ctrls0_1.readEnergy            61061208600                       # Energy for read commands per rank (pJ)
system.mem_ctrls0_1.writeEnergy           32134690620                       # Energy for write commands per rank (pJ)
system.mem_ctrls0_1.refreshEnergy        524638264800.000122                       # Energy for refresh commands per rank (pJ)
system.mem_ctrls0_1.actBackEnergy        612999686220                       # Energy for active background per rank (pJ)
system.mem_ctrls0_1.preBackEnergy         17261763840                       # Energy for precharge background per rank (pJ)
system.mem_ctrls0_1.actPowerDownEnergy   1750375308750                       # Energy for active power-down per rank (pJ)
system.mem_ctrls0_1.prePowerDownEnergy   382402587360                       # Energy for precharge power-down per rank (pJ)
system.mem_ctrls0_1.selfRefreshEnergy     72193619235                       # Energy for self refresh per rank (pJ)
system.mem_ctrls0_1.totalEnergy          3562073502480                       # Total energy per rank (pJ)
system.mem_ctrls0_1.averagePower           557.435997                       # Core power per rank (mW)
system.mem_ctrls0_1.totalIdleTime        5000317719225                       # Total Idle time Per DRAM Rank
system.mem_ctrls0_1.memoryStateTime::IDLE  20106611144                       # Time in different power states
system.mem_ctrls0_1.memoryStateTime::REF 222299726000                       # Time in different power states
system.mem_ctrls0_1.memoryStateTime::SREF 165932264978                       # Time in different power states
system.mem_ctrls0_1.memoryStateTime::PRE_PDN 995839327402                       # Time in different power states
system.mem_ctrls0_1.memoryStateTime::ACT 1147378781734                       # Time in different power states
system.mem_ctrls0_1.memoryStateTime::ACT_PDN 3838546206658                       # Time in different power states
system.mem_ctrls1.pwrStateResidencyTicks::UNDEFINED 26375204277783                       # Cumulative time (in ticks) in various power states
system.mem_ctrls1.bytes_read::cpu.inst            128                       # Number of bytes read from this memory
system.mem_ctrls1.bytes_read::cpu.data            128                       # Number of bytes read from this memory
system.mem_ctrls1.bytes_read::switch_cpus.inst          896                       # Number of bytes read from this memory
system.mem_ctrls1.bytes_read::switch_cpus.data    909841536                       # Number of bytes read from this memory
system.mem_ctrls1.bytes_read::switch_cpus_1.data    185478656                       # Number of bytes read from this memory
system.mem_ctrls1.bytes_read::total        1095321344                       # Number of bytes read from this memory
system.mem_ctrls1.bytes_inst_read::cpu.inst          128                       # Number of instructions bytes read from this memory
system.mem_ctrls1.bytes_inst_read::switch_cpus.inst          896                       # Number of instructions bytes read from this memory
system.mem_ctrls1.bytes_inst_read::total         1024                       # Number of instructions bytes read from this memory
system.mem_ctrls1.bytes_written::writebacks    788646016                       # Number of bytes written to this memory
system.mem_ctrls1.bytes_written::total      788646016                       # Number of bytes written to this memory
system.mem_ctrls1.num_reads::cpu.inst               2                       # Number of read requests responded to by this memory
system.mem_ctrls1.num_reads::cpu.data               2                       # Number of read requests responded to by this memory
system.mem_ctrls1.num_reads::switch_cpus.inst           14                       # Number of read requests responded to by this memory
system.mem_ctrls1.num_reads::switch_cpus.data     14216274                       # Number of read requests responded to by this memory
system.mem_ctrls1.num_reads::switch_cpus_1.data      2898104                       # Number of read requests responded to by this memory
system.mem_ctrls1.num_reads::total           17114396                       # Number of read requests responded to by this memory
system.mem_ctrls1.num_writes::writebacks     12322594                       # Number of write requests responded to by this memory
system.mem_ctrls1.num_writes::total          12322594                       # Number of write requests responded to by this memory
system.mem_ctrls1.bw_read::cpu.inst                20                       # Total read bandwidth from this memory (bytes/s)
system.mem_ctrls1.bw_read::cpu.data                20                       # Total read bandwidth from this memory (bytes/s)
system.mem_ctrls1.bw_read::switch_cpus.inst          140                       # Total read bandwidth from this memory (bytes/s)
system.mem_ctrls1.bw_read::switch_cpus.data    142382924                       # Total read bandwidth from this memory (bytes/s)
system.mem_ctrls1.bw_read::switch_cpus_1.data     29025926                       # Total read bandwidth from this memory (bytes/s)
system.mem_ctrls1.bw_read::total            171409030                       # Total read bandwidth from this memory (bytes/s)
system.mem_ctrls1.bw_inst_read::cpu.inst           20                       # Instruction read bandwidth from this memory (bytes/s)
system.mem_ctrls1.bw_inst_read::switch_cpus.inst          140                       # Instruction read bandwidth from this memory (bytes/s)
system.mem_ctrls1.bw_inst_read::total             160                       # Instruction read bandwidth from this memory (bytes/s)
system.mem_ctrls1.bw_write::writebacks      123416794                       # Write bandwidth from this memory (bytes/s)
system.mem_ctrls1.bw_write::total           123416794                       # Write bandwidth from this memory (bytes/s)
system.mem_ctrls1.bw_total::writebacks      123416794                       # Total bandwidth to/from this memory (bytes/s)
system.mem_ctrls1.bw_total::cpu.inst               20                       # Total bandwidth to/from this memory (bytes/s)
system.mem_ctrls1.bw_total::cpu.data               20                       # Total bandwidth to/from this memory (bytes/s)
system.mem_ctrls1.bw_total::switch_cpus.inst          140                       # Total bandwidth to/from this memory (bytes/s)
system.mem_ctrls1.bw_total::switch_cpus.data    142382924                       # Total bandwidth to/from this memory (bytes/s)
system.mem_ctrls1.bw_total::switch_cpus_1.data     29025926                       # Total bandwidth to/from this memory (bytes/s)
system.mem_ctrls1.bw_total::total           294825824                       # Total bandwidth to/from this memory (bytes/s)
system.mem_ctrls1.readReqs                   17114396                       # Number of read requests accepted
system.mem_ctrls1.writeReqs                  12322594                       # Number of write requests accepted
system.mem_ctrls1.readBursts                 17114396                       # Number of DRAM read bursts, including those serviced by the write queue
system.mem_ctrls1.writeBursts                12322594                       # Number of DRAM write bursts, including those merged in the write queue
system.mem_ctrls1.bytesReadDRAM            1095321344                       # Total number of bytes read from DRAM
system.mem_ctrls1.bytesReadWrQ                      0                       # Total number of bytes read from write queue
system.mem_ctrls1.bytesWritten              788644096                       # Total number of bytes written to DRAM
system.mem_ctrls1.bytesReadSys             1095321344                       # Total read bytes from the system interface side
system.mem_ctrls1.bytesWrittenSys           788646016                       # Total written bytes from the system interface side
system.mem_ctrls1.servicedByWrQ                     0                       # Number of DRAM read bursts serviced by the write queue
system.mem_ctrls1.mergedWrBursts                    0                       # Number of DRAM write bursts merged with an existing one
system.mem_ctrls1.neitherReadNorWriteReqs            0                       # Number of requests that are neither read nor write
system.mem_ctrls1.perBankRdBursts::0          1069409                       # Per bank write bursts
system.mem_ctrls1.perBankRdBursts::1          1069183                       # Per bank write bursts
system.mem_ctrls1.perBankRdBursts::2          1069788                       # Per bank write bursts
system.mem_ctrls1.perBankRdBursts::3          1070329                       # Per bank write bursts
system.mem_ctrls1.perBankRdBursts::4          1070929                       # Per bank write bursts
system.mem_ctrls1.perBankRdBursts::5          1071406                       # Per bank write bursts
system.mem_ctrls1.perBankRdBursts::6          1070900                       # Per bank write bursts
system.mem_ctrls1.perBankRdBursts::7          1071172                       # Per bank write bursts
system.mem_ctrls1.perBankRdBursts::8          1069847                       # Per bank write bursts
system.mem_ctrls1.perBankRdBursts::9          1069709                       # Per bank write bursts
system.mem_ctrls1.perBankRdBursts::10         1069507                       # Per bank write bursts
system.mem_ctrls1.perBankRdBursts::11         1068973                       # Per bank write bursts
system.mem_ctrls1.perBankRdBursts::12         1068110                       # Per bank write bursts
system.mem_ctrls1.perBankRdBursts::13         1067990                       # Per bank write bursts
system.mem_ctrls1.perBankRdBursts::14         1069200                       # Per bank write bursts
system.mem_ctrls1.perBankRdBursts::15         1067944                       # Per bank write bursts
system.mem_ctrls1.perBankWrBursts::0           770250                       # Per bank write bursts
system.mem_ctrls1.perBankWrBursts::1           769966                       # Per bank write bursts
system.mem_ctrls1.perBankWrBursts::2           770442                       # Per bank write bursts
system.mem_ctrls1.perBankWrBursts::3           770822                       # Per bank write bursts
system.mem_ctrls1.perBankWrBursts::4           771361                       # Per bank write bursts
system.mem_ctrls1.perBankWrBursts::5           771712                       # Per bank write bursts
system.mem_ctrls1.perBankWrBursts::6           771118                       # Per bank write bursts
system.mem_ctrls1.perBankWrBursts::7           771382                       # Per bank write bursts
system.mem_ctrls1.perBankWrBursts::8           770016                       # Per bank write bursts
system.mem_ctrls1.perBankWrBursts::9           769829                       # Per bank write bursts
system.mem_ctrls1.perBankWrBursts::10          769841                       # Per bank write bursts
system.mem_ctrls1.perBankWrBursts::11          769464                       # Per bank write bursts
system.mem_ctrls1.perBankWrBursts::12          768689                       # Per bank write bursts
system.mem_ctrls1.perBankWrBursts::13          768828                       # Per bank write bursts
system.mem_ctrls1.perBankWrBursts::14          770053                       # Per bank write bursts
system.mem_ctrls1.perBankWrBursts::15          768791                       # Per bank write bursts
system.mem_ctrls1.numRdRetry                        0                       # Number of times read queue was full causing retry
system.mem_ctrls1.numWrRetry                        0                       # Number of times write queue was full causing retry
system.mem_ctrls1.totGap                 6390102805029                       # Total gap between requests
system.mem_ctrls1.readPktSize::0                    0                       # Read request sizes (log2)
system.mem_ctrls1.readPktSize::1                    0                       # Read request sizes (log2)
system.mem_ctrls1.readPktSize::2                    0                       # Read request sizes (log2)
system.mem_ctrls1.readPktSize::3                    0                       # Read request sizes (log2)
system.mem_ctrls1.readPktSize::4                    0                       # Read request sizes (log2)
system.mem_ctrls1.readPktSize::5                    0                       # Read request sizes (log2)
system.mem_ctrls1.readPktSize::6             17114396                       # Read request sizes (log2)
system.mem_ctrls1.writePktSize::0                   0                       # Write request sizes (log2)
system.mem_ctrls1.writePktSize::1                   0                       # Write request sizes (log2)
system.mem_ctrls1.writePktSize::2                   0                       # Write request sizes (log2)
system.mem_ctrls1.writePktSize::3                   0                       # Write request sizes (log2)
system.mem_ctrls1.writePktSize::4                   0                       # Write request sizes (log2)
system.mem_ctrls1.writePktSize::5                   0                       # Write request sizes (log2)
system.mem_ctrls1.writePktSize::6            12322594                       # Write request sizes (log2)
system.mem_ctrls1.rdQLenPdf::0               16166364                       # What read queue length does an incoming req see
system.mem_ctrls1.rdQLenPdf::1                 766676                       # What read queue length does an incoming req see
system.mem_ctrls1.rdQLenPdf::2                 172337                       # What read queue length does an incoming req see
system.mem_ctrls1.rdQLenPdf::3                   9019                       # What read queue length does an incoming req see
system.mem_ctrls1.rdQLenPdf::4                      0                       # What read queue length does an incoming req see
system.mem_ctrls1.rdQLenPdf::5                      0                       # What read queue length does an incoming req see
system.mem_ctrls1.rdQLenPdf::6                      0                       # What read queue length does an incoming req see
system.mem_ctrls1.rdQLenPdf::7                      0                       # What read queue length does an incoming req see
system.mem_ctrls1.rdQLenPdf::8                      0                       # What read queue length does an incoming req see
system.mem_ctrls1.rdQLenPdf::9                      0                       # What read queue length does an incoming req see
system.mem_ctrls1.rdQLenPdf::10                     0                       # What read queue length does an incoming req see
system.mem_ctrls1.rdQLenPdf::11                     0                       # What read queue length does an incoming req see
system.mem_ctrls1.rdQLenPdf::12                     0                       # What read queue length does an incoming req see
system.mem_ctrls1.rdQLenPdf::13                     0                       # What read queue length does an incoming req see
system.mem_ctrls1.rdQLenPdf::14                     0                       # What read queue length does an incoming req see
system.mem_ctrls1.rdQLenPdf::15                     0                       # What read queue length does an incoming req see
system.mem_ctrls1.rdQLenPdf::16                     0                       # What read queue length does an incoming req see
system.mem_ctrls1.rdQLenPdf::17                     0                       # What read queue length does an incoming req see
system.mem_ctrls1.rdQLenPdf::18                     0                       # What read queue length does an incoming req see
system.mem_ctrls1.rdQLenPdf::19                     0                       # What read queue length does an incoming req see
system.mem_ctrls1.rdQLenPdf::20                     0                       # What read queue length does an incoming req see
system.mem_ctrls1.rdQLenPdf::21                     0                       # What read queue length does an incoming req see
system.mem_ctrls1.rdQLenPdf::22                     0                       # What read queue length does an incoming req see
system.mem_ctrls1.rdQLenPdf::23                     0                       # What read queue length does an incoming req see
system.mem_ctrls1.rdQLenPdf::24                     0                       # What read queue length does an incoming req see
system.mem_ctrls1.rdQLenPdf::25                     0                       # What read queue length does an incoming req see
system.mem_ctrls1.rdQLenPdf::26                     0                       # What read queue length does an incoming req see
system.mem_ctrls1.rdQLenPdf::27                     0                       # What read queue length does an incoming req see
system.mem_ctrls1.rdQLenPdf::28                     0                       # What read queue length does an incoming req see
system.mem_ctrls1.rdQLenPdf::29                     0                       # What read queue length does an incoming req see
system.mem_ctrls1.rdQLenPdf::30                     0                       # What read queue length does an incoming req see
system.mem_ctrls1.rdQLenPdf::31                     0                       # What read queue length does an incoming req see
system.mem_ctrls1.wrQLenPdf::0                      2                       # What write queue length does an incoming req see
system.mem_ctrls1.wrQLenPdf::1                      2                       # What write queue length does an incoming req see
system.mem_ctrls1.wrQLenPdf::2                      2                       # What write queue length does an incoming req see
system.mem_ctrls1.wrQLenPdf::3                      2                       # What write queue length does an incoming req see
system.mem_ctrls1.wrQLenPdf::4                      2                       # What write queue length does an incoming req see
system.mem_ctrls1.wrQLenPdf::5                      2                       # What write queue length does an incoming req see
system.mem_ctrls1.wrQLenPdf::6                      2                       # What write queue length does an incoming req see
system.mem_ctrls1.wrQLenPdf::7                      2                       # What write queue length does an incoming req see
system.mem_ctrls1.wrQLenPdf::8                      2                       # What write queue length does an incoming req see
system.mem_ctrls1.wrQLenPdf::9                      2                       # What write queue length does an incoming req see
system.mem_ctrls1.wrQLenPdf::10                     2                       # What write queue length does an incoming req see
system.mem_ctrls1.wrQLenPdf::11                     2                       # What write queue length does an incoming req see
system.mem_ctrls1.wrQLenPdf::12                     2                       # What write queue length does an incoming req see
system.mem_ctrls1.wrQLenPdf::13                     2                       # What write queue length does an incoming req see
system.mem_ctrls1.wrQLenPdf::14                     2                       # What write queue length does an incoming req see
system.mem_ctrls1.wrQLenPdf::15                393229                       # What write queue length does an incoming req see
system.mem_ctrls1.wrQLenPdf::16                424506                       # What write queue length does an incoming req see
system.mem_ctrls1.wrQLenPdf::17                661876                       # What write queue length does an incoming req see
system.mem_ctrls1.wrQLenPdf::18                714169                       # What write queue length does an incoming req see
system.mem_ctrls1.wrQLenPdf::19                722754                       # What write queue length does an incoming req see
system.mem_ctrls1.wrQLenPdf::20                723657                       # What write queue length does an incoming req see
system.mem_ctrls1.wrQLenPdf::21                723711                       # What write queue length does an incoming req see
system.mem_ctrls1.wrQLenPdf::22                727435                       # What write queue length does an incoming req see
system.mem_ctrls1.wrQLenPdf::23                732780                       # What write queue length does an incoming req see
system.mem_ctrls1.wrQLenPdf::24                734523                       # What write queue length does an incoming req see
system.mem_ctrls1.wrQLenPdf::25                726354                       # What write queue length does an incoming req see
system.mem_ctrls1.wrQLenPdf::26                723856                       # What write queue length does an incoming req see
system.mem_ctrls1.wrQLenPdf::27                721972                       # What write queue length does an incoming req see
system.mem_ctrls1.wrQLenPdf::28                721094                       # What write queue length does an incoming req see
system.mem_ctrls1.wrQLenPdf::29                720667                       # What write queue length does an incoming req see
system.mem_ctrls1.wrQLenPdf::30                719646                       # What write queue length does an incoming req see
system.mem_ctrls1.wrQLenPdf::31                714482                       # What write queue length does an incoming req see
system.mem_ctrls1.wrQLenPdf::32                714245                       # What write queue length does an incoming req see
system.mem_ctrls1.wrQLenPdf::33                  1305                       # What write queue length does an incoming req see
system.mem_ctrls1.wrQLenPdf::34                   244                       # What write queue length does an incoming req see
system.mem_ctrls1.wrQLenPdf::35                    47                       # What write queue length does an incoming req see
system.mem_ctrls1.wrQLenPdf::36                    11                       # What write queue length does an incoming req see
system.mem_ctrls1.wrQLenPdf::37                     1                       # What write queue length does an incoming req see
system.mem_ctrls1.wrQLenPdf::38                     0                       # What write queue length does an incoming req see
system.mem_ctrls1.wrQLenPdf::39                     0                       # What write queue length does an incoming req see
system.mem_ctrls1.wrQLenPdf::40                     0                       # What write queue length does an incoming req see
system.mem_ctrls1.wrQLenPdf::41                     0                       # What write queue length does an incoming req see
system.mem_ctrls1.wrQLenPdf::42                     0                       # What write queue length does an incoming req see
system.mem_ctrls1.wrQLenPdf::43                     0                       # What write queue length does an incoming req see
system.mem_ctrls1.wrQLenPdf::44                     0                       # What write queue length does an incoming req see
system.mem_ctrls1.wrQLenPdf::45                     0                       # What write queue length does an incoming req see
system.mem_ctrls1.wrQLenPdf::46                     0                       # What write queue length does an incoming req see
system.mem_ctrls1.wrQLenPdf::47                     0                       # What write queue length does an incoming req see
system.mem_ctrls1.wrQLenPdf::48                     0                       # What write queue length does an incoming req see
system.mem_ctrls1.wrQLenPdf::49                     0                       # What write queue length does an incoming req see
system.mem_ctrls1.wrQLenPdf::50                     0                       # What write queue length does an incoming req see
system.mem_ctrls1.wrQLenPdf::51                     0                       # What write queue length does an incoming req see
system.mem_ctrls1.wrQLenPdf::52                     0                       # What write queue length does an incoming req see
system.mem_ctrls1.wrQLenPdf::53                     0                       # What write queue length does an incoming req see
system.mem_ctrls1.wrQLenPdf::54                     0                       # What write queue length does an incoming req see
system.mem_ctrls1.wrQLenPdf::55                     0                       # What write queue length does an incoming req see
system.mem_ctrls1.wrQLenPdf::56                     0                       # What write queue length does an incoming req see
system.mem_ctrls1.wrQLenPdf::57                     0                       # What write queue length does an incoming req see
system.mem_ctrls1.wrQLenPdf::58                     0                       # What write queue length does an incoming req see
system.mem_ctrls1.wrQLenPdf::59                     0                       # What write queue length does an incoming req see
system.mem_ctrls1.wrQLenPdf::60                     0                       # What write queue length does an incoming req see
system.mem_ctrls1.wrQLenPdf::61                     0                       # What write queue length does an incoming req see
system.mem_ctrls1.wrQLenPdf::62                     0                       # What write queue length does an incoming req see
system.mem_ctrls1.wrQLenPdf::63                     0                       # What write queue length does an incoming req see
system.mem_ctrls1.bytesPerActivate::samples     19901054                       # Bytes accessed per row activation
system.mem_ctrls1.bytesPerActivate::mean    94.666584                       # Bytes accessed per row activation
system.mem_ctrls1.bytesPerActivate::gmean    84.520432                       # Bytes accessed per row activation
system.mem_ctrls1.bytesPerActivate::stdev    55.202097                       # Bytes accessed per row activation
system.mem_ctrls1.bytesPerActivate::0-127     13540135     68.04%     68.04% # Bytes accessed per row activation
system.mem_ctrls1.bytesPerActivate::128-255      5663206     28.46%     96.49% # Bytes accessed per row activation
system.mem_ctrls1.bytesPerActivate::256-383       611507      3.07%     99.57% # Bytes accessed per row activation
system.mem_ctrls1.bytesPerActivate::384-511        70271      0.35%     99.92% # Bytes accessed per row activation
system.mem_ctrls1.bytesPerActivate::512-639        12591      0.06%     99.98% # Bytes accessed per row activation
system.mem_ctrls1.bytesPerActivate::640-767         2240      0.01%     99.99% # Bytes accessed per row activation
system.mem_ctrls1.bytesPerActivate::768-895          744      0.00%    100.00% # Bytes accessed per row activation
system.mem_ctrls1.bytesPerActivate::896-1023          236      0.00%    100.00% # Bytes accessed per row activation
system.mem_ctrls1.bytesPerActivate::1024-1151          124      0.00%    100.00% # Bytes accessed per row activation
system.mem_ctrls1.bytesPerActivate::total     19901054                       # Bytes accessed per row activation
system.mem_ctrls1.rdPerTurnAround::samples       714076                       # Reads before turning the bus around for writes
system.mem_ctrls1.rdPerTurnAround::mean     23.967145                       # Reads before turning the bus around for writes
system.mem_ctrls1.rdPerTurnAround::gmean    23.366798                       # Reads before turning the bus around for writes
system.mem_ctrls1.rdPerTurnAround::stdev    39.319012                       # Reads before turning the bus around for writes
system.mem_ctrls1.rdPerTurnAround::0-2047       714075    100.00%    100.00% # Reads before turning the bus around for writes
system.mem_ctrls1.rdPerTurnAround::32768-34815            1      0.00%    100.00% # Reads before turning the bus around for writes
system.mem_ctrls1.rdPerTurnAround::total       714076                       # Reads before turning the bus around for writes
system.mem_ctrls1.wrPerTurnAround::samples       714076                       # Writes before turning the bus around for reads
system.mem_ctrls1.wrPerTurnAround::mean     17.256656                       # Writes before turning the bus around for reads
system.mem_ctrls1.wrPerTurnAround::gmean    17.220540                       # Writes before turning the bus around for reads
system.mem_ctrls1.wrPerTurnAround::stdev     1.117249                       # Writes before turning the bus around for reads
system.mem_ctrls1.wrPerTurnAround::16          290808     40.73%     40.73% # Writes before turning the bus around for reads
system.mem_ctrls1.wrPerTurnAround::17           22642      3.17%     43.90% # Writes before turning the bus around for reads
system.mem_ctrls1.wrPerTurnAround::18          338840     47.45%     91.35% # Writes before turning the bus around for reads
system.mem_ctrls1.wrPerTurnAround::19           51555      7.22%     98.57% # Writes before turning the bus around for reads
system.mem_ctrls1.wrPerTurnAround::20            8943      1.25%     99.82% # Writes before turning the bus around for reads
system.mem_ctrls1.wrPerTurnAround::21            1158      0.16%     99.98% # Writes before turning the bus around for reads
system.mem_ctrls1.wrPerTurnAround::22             118      0.02%    100.00% # Writes before turning the bus around for reads
system.mem_ctrls1.wrPerTurnAround::23              10      0.00%    100.00% # Writes before turning the bus around for reads
system.mem_ctrls1.wrPerTurnAround::25               1      0.00%    100.00% # Writes before turning the bus around for reads
system.mem_ctrls1.wrPerTurnAround::28               1      0.00%    100.00% # Writes before turning the bus around for reads
system.mem_ctrls1.wrPerTurnAround::total       714076                       # Writes before turning the bus around for reads
system.mem_ctrls1.totQLat                456650884610                       # Total ticks spent queuing
system.mem_ctrls1.totMemAccLat           777545809610                       # Total ticks spent from burst creation until serviced by the DRAM
system.mem_ctrls1.totBusLat               85571980000                       # Total ticks spent in databus transfers
system.mem_ctrls1.avgQLat                    26682.27                       # Average queueing delay per DRAM burst
system.mem_ctrls1.avgBusLat                   5000.00                       # Average bus latency per DRAM burst
system.mem_ctrls1.avgMemAccLat               45432.27                       # Average memory access latency per DRAM burst
system.mem_ctrls1.avgRdBW                      171.41                       # Average DRAM read bandwidth in MiByte/s
system.mem_ctrls1.avgWrBW                      123.42                       # Average achieved write bandwidth in MiByte/s
system.mem_ctrls1.avgRdBWSys                   171.41                       # Average system read bandwidth in MiByte/s
system.mem_ctrls1.avgWrBWSys                   123.42                       # Average system write bandwidth in MiByte/s
system.mem_ctrls1.peakBW                     12800.00                       # Theoretical peak bandwidth in MiByte/s
system.mem_ctrls1.busUtil                        2.30                       # Data bus utilization in percentage
system.mem_ctrls1.busUtilRead                    1.34                       # Data bus utilization in percentage for reads
system.mem_ctrls1.busUtilWrite                   0.96                       # Data bus utilization in percentage for writes
system.mem_ctrls1.avgRdQLen                      1.02                       # Average read queue length when enqueuing
system.mem_ctrls1.avgWrQLen                     24.88                       # Average write queue length when enqueuing
system.mem_ctrls1.readRowHits                 7251673                       # Number of row buffer hits during reads
system.mem_ctrls1.writeRowHits                2284224                       # Number of row buffer hits during writes
system.mem_ctrls1.readRowHitRate                42.37                       # Row buffer hit rate for reads
system.mem_ctrls1.writeRowHitRate               18.54                       # Row buffer hit rate for writes
system.mem_ctrls1.avgGap                    217077.32                       # Average gap between requests
system.mem_ctrls1.pageHitRate                   32.39                       # Row buffer hit rate, read and write combined
system.mem_ctrls1_0.actEnergy             71090852280                       # Energy for activate commands per rank (pJ)
system.mem_ctrls1_0.preEnergy             37785668910                       # Energy for precharge commands per rank (pJ)
system.mem_ctrls1_0.readEnergy            61140648240                       # Energy for read commands per rank (pJ)
system.mem_ctrls1_0.writeEnergy           32192016660                       # Energy for write commands per rank (pJ)
system.mem_ctrls1_0.refreshEnergy        524617367040.000122                       # Energy for refresh commands per rank (pJ)
system.mem_ctrls1_0.actBackEnergy        611849818380                       # Energy for active background per rank (pJ)
system.mem_ctrls1_0.preBackEnergy         17292561120                       # Energy for precharge background per rank (pJ)
system.mem_ctrls1_0.actPowerDownEnergy   1752000908280                       # Energy for active power-down per rank (pJ)
system.mem_ctrls1_0.prePowerDownEnergy   381611830560                       # Energy for precharge power-down per rank (pJ)
system.mem_ctrls1_0.selfRefreshEnergy     72470851875                       # Energy for self refresh per rank (pJ)
system.mem_ctrls1_0.totalEnergy          3562294626945                       # Total energy per rank (pJ)
system.mem_ctrls1_0.averagePower           557.470601                       # Core power per rank (mW)
system.mem_ctrls1_0.totalIdleTime        5002765246660                       # Total Idle time Per DRAM Rank
system.mem_ctrls1_0.memoryStateTime::IDLE  20188482853                       # Time in different power states
system.mem_ctrls1_0.memoryStateTime::REF 222291252000                       # Time in different power states
system.mem_ctrls1_0.memoryStateTime::SREF 166867719337                       # Time in different power states
system.mem_ctrls1_0.memoryStateTime::PRE_PDN 993779463495                       # Time in different power states
system.mem_ctrls1_0.memoryStateTime::ACT 1144857936403                       # Time in different power states
system.mem_ctrls1_0.memoryStateTime::ACT_PDN 3842118063828                       # Time in different power states
system.mem_ctrls1_1.actEnergy             71002737540                       # Energy for activate commands per rank (pJ)
system.mem_ctrls1_1.preEnergy             37738831020                       # Energy for precharge commands per rank (pJ)
system.mem_ctrls1_1.readEnergy            61056139200                       # Energy for read commands per rank (pJ)
system.mem_ctrls1_1.writeEnergy           32131767420                       # Energy for write commands per rank (pJ)
system.mem_ctrls1_1.refreshEnergy        524663465040.000122                       # Energy for refresh commands per rank (pJ)
system.mem_ctrls1_1.actBackEnergy        613639685640                       # Energy for active background per rank (pJ)
system.mem_ctrls1_1.preBackEnergy         17265849120                       # Energy for precharge background per rank (pJ)
system.mem_ctrls1_1.actPowerDownEnergy   1750545983850                       # Energy for active power-down per rank (pJ)
system.mem_ctrls1_1.prePowerDownEnergy   381849142080                       # Energy for precharge power-down per rank (pJ)
system.mem_ctrls1_1.selfRefreshEnergy     72109749360                       # Energy for self refresh per rank (pJ)
system.mem_ctrls1_1.totalEnergy          3562244444910                       # Total energy per rank (pJ)
system.mem_ctrls1_1.averagePower           557.462750                       # Core power per rank (mW)
system.mem_ctrls1_1.totalIdleTime        4998904256855                       # Total Idle time Per DRAM Rank
system.mem_ctrls1_1.memoryStateTime::IDLE  20122946615                       # Time in different power states
system.mem_ctrls1_1.memoryStateTime::REF 222309912000                       # Time in different power states
system.mem_ctrls1_1.memoryStateTime::SREF 165586867127                       # Time in different power states
system.mem_ctrls1_1.memoryStateTime::PRE_PDN 994394715908                       # Time in different power states
system.mem_ctrls1_1.memoryStateTime::ACT 1148765658462                       # Time in different power states
system.mem_ctrls1_1.memoryStateTime::ACT_PDN 3838922817804                       # Time in different power states
system.pwrStateResidencyTicks::UNDEFINED 26375204277783                       # Cumulative time (in ticks) in various power states
system.cpu.branchPred.lookups                       0                       # Number of BP lookups
system.cpu.branchPred.condPredicted                 0                       # Number of conditional branches predicted
system.cpu.branchPred.condIncorrect                 0                       # Number of conditional branches incorrect
system.cpu.branchPred.BTBLookups                    0                       # Number of BTB lookups
system.cpu.branchPred.BTBHits                       0                       # Number of BTB hits
system.cpu.branchPred.BTBCorrect                    0                       # Number of correct BTB predictions (this stat may not work properly.
system.cpu.branchPred.BTBHitPct                   nan                       # BTB Hit Percentage
system.cpu.branchPred.usedRAS                       0                       # Number of times the RAS was used to get a target.
system.cpu.branchPred.RASInCorrect                  0                       # Number of incorrect RAS predictions.
system.cpu.branchPred.indirectLookups               0                       # Number of indirect predictor lookups.
system.cpu.branchPred.indirectHits                  0                       # Number of indirect target hits.
system.cpu.branchPred.indirectMisses                0                       # Number of indirect misses.
system.cpu.branchPredindirectMispredicted            0                       # Number of mispredicted indirect branches.
system.cpu_voltage_domain.voltage                   1                       # Voltage in Volts
system.cpu_clk_domain.clock                       333                       # Clock period in ticks
system.cpu.dtb.fetch_hits                           0                       # ITB hits
system.cpu.dtb.fetch_misses                         0                       # ITB misses
system.cpu.dtb.fetch_acv                            0                       # ITB acv
system.cpu.dtb.fetch_accesses                       0                       # ITB accesses
system.cpu.dtb.read_hits                           14                       # DTB read hits
system.cpu.dtb.read_misses                          0                       # DTB read misses
system.cpu.dtb.read_acv                             0                       # DTB read access violations
system.cpu.dtb.read_accesses                       14                       # DTB read accesses
system.cpu.dtb.write_hits                           1                       # DTB write hits
system.cpu.dtb.write_misses                         0                       # DTB write misses
system.cpu.dtb.write_acv                            0                       # DTB write access violations
system.cpu.dtb.write_accesses                       1                       # DTB write accesses
system.cpu.dtb.data_hits                           15                       # DTB hits
system.cpu.dtb.data_misses                          0                       # DTB misses
system.cpu.dtb.data_acv                             0                       # DTB access violations
system.cpu.dtb.data_accesses                       15                       # DTB accesses
system.cpu.itb.fetch_hits                           4                       # ITB hits
system.cpu.itb.fetch_misses                         0                       # ITB misses
system.cpu.itb.fetch_acv                            0                       # ITB acv
system.cpu.itb.fetch_accesses                       4                       # ITB accesses
system.cpu.itb.read_hits                            0                       # DTB read hits
system.cpu.itb.read_misses                          0                       # DTB read misses
system.cpu.itb.read_acv                             0                       # DTB read access violations
system.cpu.itb.read_accesses                        0                       # DTB read accesses
system.cpu.itb.write_hits                           0                       # DTB write hits
system.cpu.itb.write_misses                         0                       # DTB write misses
system.cpu.itb.write_acv                            0                       # DTB write access violations
system.cpu.itb.write_accesses                       0                       # DTB write accesses
system.cpu.itb.data_hits                            0                       # DTB hits
system.cpu.itb.data_misses                          0                       # DTB misses
system.cpu.itb.data_acv                             0                       # DTB access violations
system.cpu.itb.data_accesses                        0                       # DTB accesses
system.cpu.workload.num_syscalls                    0                       # Number of system calls
system.cpu.pwrStateResidencyTicks::ON    6390102917916                       # Cumulative time (in ticks) in various power states
system.cpu.numCycles                              987                       # number of cpu cycles simulated
system.cpu.numWorkItemsStarted                      0                       # number of work items this cpu started
system.cpu.numWorkItemsCompleted                    0                       # number of work items this cpu completed
system.cpu.fetch.icacheStallCycles                 63                       # Number of cycles fetch is stalled on an Icache miss
system.cpu.fetch.Insts                             29                       # Number of instructions fetch has processed
system.cpu.fetch.Cycles                             4                       # Number of cycles fetch has run and was not squashing or blocked
system.cpu.fetch.SquashCycles                       3                       # Number of cycles fetch has spent squashing
system.cpu.fetch.PendingDrainCycles                 8                       # Number of cycles fetch has spent waiting on pipes to drain
system.cpu.fetch.CacheLines                         4                       # Number of cache lines fetched
system.cpu.fetch.IcacheSquashes                     2                       # Number of outstanding Icache misses that were squashed
system.cpu.fetch.rateDist::samples                 76                       # Number of instructions fetched each cycle (Total)
system.cpu.fetch.rateDist::mean              0.381579                       # Number of instructions fetched each cycle (Total)
system.cpu.fetch.rateDist::stdev             1.657042                       # Number of instructions fetched each cycle (Total)
system.cpu.fetch.rateDist::underflows               0      0.00%      0.00% # Number of instructions fetched each cycle (Total)
system.cpu.fetch.rateDist::0                       72     94.74%     94.74% # Number of instructions fetched each cycle (Total)
system.cpu.fetch.rateDist::1                        0      0.00%     94.74% # Number of instructions fetched each cycle (Total)
system.cpu.fetch.rateDist::2                        0      0.00%     94.74% # Number of instructions fetched each cycle (Total)
system.cpu.fetch.rateDist::3                        0      0.00%     94.74% # Number of instructions fetched each cycle (Total)
system.cpu.fetch.rateDist::4                        0      0.00%     94.74% # Number of instructions fetched each cycle (Total)
system.cpu.fetch.rateDist::5                        1      1.32%     96.05% # Number of instructions fetched each cycle (Total)
system.cpu.fetch.rateDist::6                        0      0.00%     96.05% # Number of instructions fetched each cycle (Total)
system.cpu.fetch.rateDist::7                        0      0.00%     96.05% # Number of instructions fetched each cycle (Total)
system.cpu.fetch.rateDist::8                        3      3.95%    100.00% # Number of instructions fetched each cycle (Total)
system.cpu.fetch.rateDist::overflows                0      0.00%    100.00% # Number of instructions fetched each cycle (Total)
system.cpu.fetch.rateDist::min_value                0                       # Number of instructions fetched each cycle (Total)
system.cpu.fetch.rateDist::max_value                8                       # Number of instructions fetched each cycle (Total)
system.cpu.fetch.rateDist::total                   76                       # Number of instructions fetched each cycle (Total)
system.cpu.fetch.branchRate                         0                       # Number of branch fetches per cycle
[...]
system.switch_cpus_1.iq.FU_type_0::IprAccess            0      0.00%    100.00% # Type of FU issued
system.switch_cpus_1.iq.FU_type_0::InstPrefetch            0      0.00%    100.00% # Type of FU issued
system.switch_cpus_1.iq.FU_type_0::total    322730526                       # Type of FU issued
system.switch_cpus_1.iq.rate                 0.355426                       # Inst issue rate
system.switch_cpus_1.iq.fu_busy_cnt          57864396                       # FU busy when requested
system.switch_cpus_1.iq.fu_busy_rate         0.179296                       # FU busy rate (busy events/executed inst)
system.switch_cpus_1.iq.int_inst_queue_reads    961072354                       # Number of integer instruction queue reads
system.switch_cpus_1.iq.int_inst_queue_writes     23715548                       # Number of integer instruction queue writes
system.switch_cpus_1.iq.int_inst_queue_wakeup_accesses     22421223                       # Number of integer instruction queue wakeup accesses
system.switch_cpus_1.iq.fp_inst_queue_reads    650317855                       # Number of floating instruction queue reads
system.switch_cpus_1.iq.fp_inst_queue_writes    190320226                       # Number of floating instruction queue writes
system.switch_cpus_1.iq.fp_inst_queue_wakeup_accesses    182410241                       # Number of floating instruction queue wakeup accesses
system.switch_cpus_1.iq.int_alu_accesses     27557605                       # Number of integer alu accesses
system.switch_cpus_1.iq.fp_alu_accesses     353037317                       # Number of floating point alu accesses
system.switch_cpus_1.iew.lsq.thread0.forwLoads      8679608                       # Number of loads that had data forwarded from stores
system.switch_cpus_1.iew.lsq.thread0.invAddrLoads            0                       # Number of loads ignored due to an invalid address
system.switch_cpus_1.iew.lsq.thread0.squashedLoads      1753225                       # Number of loads squashed
system.switch_cpus_1.iew.lsq.thread0.ignoredResponses           19                       # Number of memory responses ignored because the instruction is squashed
system.switch_cpus_1.iew.lsq.thread0.memOrderViolation         1284                       # Number of memory ordering violations
system.switch_cpus_1.iew.lsq.thread0.squashedStores       656853                       # Number of stores squashed
system.switch_cpus_1.iew.lsq.thread0.invAddrSwpfs            0                       # Number of software prefetches ignored due to an invalid address
system.switch_cpus_1.iew.lsq.thread0.blockedLoads            0                       # Number of blocked loads due to partial load-store forwarding
system.switch_cpus_1.iew.lsq.thread0.rescheduledLoads            0                       # Number of loads that were rescheduled
system.switch_cpus_1.iew.lsq.thread0.cacheBlocked    125653316                       # Number of times an access to memory failed due to the cache being blocked
system.switch_cpus_1.iew.iewIdleCycles              0                       # Number of cycles IEW is idle
system.switch_cpus_1.iew.iewSquashCycles        62271                       # Number of cycles IEW is squashing
system.switch_cpus_1.iew.iewBlockCycles     641665125                       # Number of cycles IEW is blocking
system.switch_cpus_1.iew.iewUnblockCycles     54296724                       # Number of cycles IEW is unblocking
system.switch_cpus_1.iew.iewDispatchedInsts    207017291                       # Number of instructions dispatched to IQ
system.switch_cpus_1.iew.iewDispSquashedInsts           22                       # Number of squashed instructions skipped by dispatch
system.switch_cpus_1.iew.iewDispLoadInsts     38697814                       # Number of dispatched load instructions
system.switch_cpus_1.iew.iewDispStoreInsts     18518858                       # Number of dispatched store instructions
system.switch_cpus_1.iew.iewDispNonSpecInsts            0                       # Number of dispatched non-speculative instructions
system.switch_cpus_1.iew.iewIQFullEvents      2102909                       # Number of times the IQ has become full, causing a stall
system.switch_cpus_1.iew.iewLSQFullEvents     50441090                       # Number of times the LSQ has become full, causing a stall
system.switch_cpus_1.iew.memOrderViolationEvents         1284                       # Number of memory order violations
system.switch_cpus_1.iew.predictedTakenIncorrect         1296                       # Number of branches that were predicted taken incorrectly
system.switch_cpus_1.iew.predictedNotTakenIncorrect         8897                       # Number of branches that were predicted not taken incorrectly
system.switch_cpus_1.iew.branchMispredicts        10193                       # Number of branch mispredicts detected at execute
system.switch_cpus_1.iew.iewExecutedInsts    322723197                       # Number of executed instructions
system.switch_cpus_1.iew.iewExecLoadInsts    155994226                       # Number of load instructions executed
system.switch_cpus_1.iew.iewExecSquashedInsts         7315                       # Number of squashed instructions skipped in execute
system.switch_cpus_1.iew.exec_swp                   0                       # number of swp insts executed
system.switch_cpus_1.iew.exec_nop                   1                       # number of nop insts executed
system.switch_cpus_1.iew.exec_refs          174389389                       # number of memory reference insts executed
system.switch_cpus_1.iew.exec_branches        3141315                       # Number of branches executed
system.switch_cpus_1.iew.exec_stores         18395163                       # Number of stores executed
system.switch_cpus_1.iew.exec_rate           0.355418                       # Inst execution rate
system.switch_cpus_1.iew.wb_sent            205023922                       # cumulative count of insts sent to commit
system.switch_cpus_1.iew.wb_count           204831464                       # cumulative count of insts written-back
system.switch_cpus_1.iew.wb_producers       162664368                       # num instructions producing a value
system.switch_cpus_1.iew.wb_consumers       223351034                       # num instructions consuming a value
system.switch_cpus_1.iew.wb_rate             0.225583                       # insts written-back per cycle
system.switch_cpus_1.iew.wb_fanout           0.728290                       # average fanout of values written-back
system.switch_cpus_1.commit.commitSquashedInsts      7092054                       # The number of squashed insts skipped by commit
system.switch_cpus_1.commit.branchMispredicts        10193                       # The number of times a branch was mispredicted
system.switch_cpus_1.commit.committed_per_cycle::samples    907091054                       # Number of insts commited each cycle
system.switch_cpus_1.commit.committed_per_cycle::mean     0.220485                       # Number of insts commited each cycle
system.switch_cpus_1.commit.committed_per_cycle::stdev     1.206429                       # Number of insts commited each cycle
system.switch_cpus_1.commit.committed_per_cycle::underflows            0      0.00%      0.00% # Number of insts commited each cycle
system.switch_cpus_1.commit.committed_per_cycle::0    869199637     95.82%     95.82% # Number of insts commited each cycle
system.switch_cpus_1.commit.committed_per_cycle::1      7880733      0.87%     96.69% # Number of insts commited each cycle
system.switch_cpus_1.commit.committed_per_cycle::2      1817988      0.20%     96.89% # Number of insts commited each cycle
system.switch_cpus_1.commit.committed_per_cycle::3      2080270      0.23%     97.12% # Number of insts commited each cycle
system.switch_cpus_1.commit.committed_per_cycle::4      3037345      0.33%     97.46% # Number of insts commited each cycle
system.switch_cpus_1.commit.committed_per_cycle::5      3163807      0.35%     97.80% # Number of insts commited each cycle
system.switch_cpus_1.commit.committed_per_cycle::6      1846950      0.20%     98.01% # Number of insts commited each cycle
system.switch_cpus_1.commit.committed_per_cycle::7      1322223      0.15%     98.15% # Number of insts commited each cycle
system.switch_cpus_1.commit.committed_per_cycle::8     16742101      1.85%    100.00% # Number of insts commited each cycle
system.switch_cpus_1.commit.committed_per_cycle::overflows            0      0.00%    100.00% # Number of insts commited each cycle
system.switch_cpus_1.commit.committed_per_cycle::min_value            0                       # Number of insts commited each cycle
system.switch_cpus_1.commit.committed_per_cycle::max_value            8                       # Number of insts commited each cycle
system.switch_cpus_1.commit.committed_per_cycle::total    907091054                       # Number of insts commited each cycle
system.switch_cpus_1.commit.committedInsts    200000003                       # Number of instructions committed
system.switch_cpus_1.commit.committedOps    200000003                       # Number of ops (including micro ops) committed
system.switch_cpus_1.commit.swp_count               0                       # Number of s/w prefetches committed
system.switch_cpus_1.commit.refs             54806565                       # Number of memory references committed
system.switch_cpus_1.commit.loads            36944574                       # Number of loads committed
system.switch_cpus_1.commit.membars                 0                       # Number of memory barriers committed
system.switch_cpus_1.commit.branches          3002738                       # Number of branches committed
system.switch_cpus_1.commit.fp_insts        178679405                       # Number of committed floating point instructions.
system.switch_cpus_1.commit.int_insts        74337577                       # Number of committed integer instructions.
system.switch_cpus_1.commit.function_calls            0                       # Number of function calls committed.
system.switch_cpus_1.commit.op_class_0::No_OpClass            0      0.00%      0.00% # Class of committed instruction
system.switch_cpus_1.commit.op_class_0::IntAlu     20683879     10.34%     10.34% # Class of committed instruction
system.switch_cpus_1.commit.op_class_0::IntMult            0      0.00%     10.34% # Class of committed instruction
system.switch_cpus_1.commit.op_class_0::IntDiv            0      0.00%     10.34% # Class of committed instruction
system.switch_cpus_1.commit.op_class_0::FloatAdd     77818474     38.91%     49.25% # Class of committed instruction
system.switch_cpus_1.commit.op_class_0::FloatCmp            0      0.00%     49.25% # Class of committed instruction
system.switch_cpus_1.commit.op_class_0::FloatCvt            0      0.00%     49.25% # Class of committed instruction
system.switch_cpus_1.commit.op_class_0::FloatMult     44961786     22.48%     71.73% # Class of committed instruction
system.switch_cpus_1.commit.op_class_0::FloatMultAcc            0      0.00%     71.73% # Class of committed instruction
system.switch_cpus_1.commit.op_class_0::FloatDiv      1729299      0.86%     72.60% # Class of committed instruction
system.switch_cpus_1.commit.op_class_0::FloatMisc            0      0.00%     72.60% # Class of committed instruction
system.switch_cpus_1.commit.op_class_0::FloatSqrt            0      0.00%     72.60% # Class of committed instruction
system.switch_cpus_1.commit.op_class_0::SimdAdd            0      0.00%     72.60% # Class of committed instruction
system.switch_cpus_1.commit.op_class_0::SimdAddAcc            0      0.00%     72.60% # Class of committed instruction
system.switch_cpus_1.commit.op_class_0::SimdAlu            0      0.00%     72.60% # Class of committed instruction
system.switch_cpus_1.commit.op_class_0::SimdCmp            0      0.00%     72.60% # Class of committed instruction
system.switch_cpus_1.commit.op_class_0::SimdCvt            0      0.00%     72.60% # Class of committed instruction
system.switch_cpus_1.commit.op_class_0::SimdMisc            0      0.00%     72.60% # Class of committed instruction
system.switch_cpus_1.commit.op_class_0::SimdMult            0      0.00%     72.60% # Class of committed instruction
system.switch_cpus_1.commit.op_class_0::SimdMultAcc            0      0.00%     72.60% # Class of committed instruction
system.switch_cpus_1.commit.op_class_0::SimdShift            0      0.00%     72.60% # Class of committed instruction
system.switch_cpus_1.commit.op_class_0::SimdShiftAcc            0      0.00%     72.60% # Class of committed instruction
system.switch_cpus_1.commit.op_class_0::SimdSqrt            0      0.00%     72.60% # Class of committed instruction
system.switch_cpus_1.commit.op_class_0::SimdFloatAdd            0      0.00%     72.60% # Class of committed instruction
system.switch_cpus_1.commit.op_class_0::SimdFloatAlu            0      0.00%     72.60% # Class of committed instruction
system.switch_cpus_1.commit.op_class_0::SimdFloatCmp            0      0.00%     72.60% # Class of committed instruction
system.switch_cpus_1.commit.op_class_0::SimdFloatCvt            0      0.00%     72.60% # Class of committed instruction
system.switch_cpus_1.commit.op_class_0::SimdFloatDiv            0      0.00%     72.60% # Class of committed instruction
system.switch_cpus_1.commit.op_class_0::SimdFloatMisc            0      0.00%     72.60% # Class of committed instruction
system.switch_cpus_1.commit.op_class_0::SimdFloatMult            0      0.00%     72.60% # Class of committed instruction
system.switch_cpus_1.commit.op_class_0::SimdFloatMultAcc            0      0.00%     72.60% # Class of committed instruction
system.switch_cpus_1.commit.op_class_0::SimdFloatSqrt            0      0.00%     72.60% # Class of committed instruction
system.switch_cpus_1.commit.op_class_0::MemRead       636719      0.32%     72.92% # Class of committed instruction
system.switch_cpus_1.commit.op_class_0::MemWrite            0      0.00%     72.92% # Class of committed instruction
system.switch_cpus_1.commit.op_class_0::FloatMemRead     36307855     18.15%     91.07% # Class of committed instruction
system.switch_cpus_1.commit.op_class_0::FloatMemWrite     17861991      8.93%    100.00% # Class of committed instruction
system.switch_cpus_1.commit.op_class_0::IprAccess            0      0.00%    100.00% # Class of committed instruction
system.switch_cpus_1.commit.op_class_0::InstPrefetch            0      0.00%    100.00% # Class of committed instruction
system.switch_cpus_1.commit.op_class_0::total    200000003                       # Class of committed instruction
system.switch_cpus_1.commit.bw_lim_events     16742101                       # number cycles where commit BW limit reached
system.switch_cpus_1.rob.rob_reads         1096773681                       # The number of ROB reads
system.switch_cpus_1.rob.rob_writes         415103277                       # The number of ROB writes
system.switch_cpus_1.committedInsts         200000003                       # Number of Instructions Simulated
system.switch_cpus_1.committedOps           200000003                       # Number of Ops (including micro ops) Simulated
system.switch_cpus_1.cpi                     4.540051                       # CPI: Cycles Per Instruction
system.switch_cpus_1.cpi_total               4.540051                       # CPI: Total CPI of All Threads
system.switch_cpus_1.ipc                     0.220262                       # IPC: Instructions Per Cycle
system.switch_cpus_1.ipc_total               0.220262                       # IPC: Total IPC of All Threads
system.switch_cpus_1.int_regfile_reads      195637689                       # number of integer regfile reads
system.switch_cpus_1.int_regfile_writes      19280896                       # number of integer regfile writes
system.switch_cpus_1.fp_regfile_reads       271549253                       # number of floating regfile reads
system.switch_cpus_1.fp_regfile_writes      164067137                       # number of floating regfile writes
system.tol3bus.snoop_filter.tot_requests     76288143                       # Total number of requests made to the snoop filter.
system.tol3bus.snoop_filter.hit_single_requests     38141902                       # Number of requests hitting in the snoop filter with a single holder of the requested data.
system.tol3bus.snoop_filter.hit_multi_requests            0                       # Number of requests hitting in the snoop filter with multiple (>1) holders of the requested data.
system.tol3bus.snoop_filter.tot_snoops            277                       # Total number of snoops made to the snoop filter.
system.tol3bus.snoop_filter.hit_single_snoops          277                       # Number of snoops hitting in the snoop filter with a single holder of the requested data.
system.tol3bus.snoop_filter.hit_multi_snoops            0                       # Number of snoops hitting in the snoop filter with multiple (>1) holders of the requested data.
system.tol3bus.pwrStateResidencyTicks::UNDEFINED 26375204277783                       # Cumulative time (in ticks) in various power states
system.tol3bus.trans_dist::ReadResp           9536654                       # Transaction distribution
system.tol3bus.trans_dist::WritebackDirty     53252185                       # Transaction distribution
system.tol3bus.trans_dist::CleanEvict        19051457                       # Transaction distribution
system.tol3bus.trans_dist::ReadExReq         28609587                       # Transaction distribution
system.tol3bus.trans_dist::ReadExResp        28609586                       # Transaction distribution
system.tol3bus.trans_dist::ReadSharedReq      9536654                       # Transaction distribution
system.tol3bus.pkt_count_system.cpu.l2.mem_side::system.l3.cpu_side    114434383                       # Packet count per connected master and slave (bytes)
system.tol3bus.pkt_size_system.cpu.l2.mem_side::system.l3.cpu_side   4272153856                       # Cumulative packet size per connected master and slave (bytes)
system.tol3bus.snoops                        34161740                       # Total snoops (count)
system.tol3bus.snoopTraffic                1577345344                       # Total snoop traffic (bytes)
system.tol3bus.snoop_fanout::samples         72307981                       # Request fanout histogram
system.tol3bus.snoop_fanout::mean            0.000004                       # Request fanout histogram
system.tol3bus.snoop_fanout::stdev           0.001957                       # Request fanout histogram
system.tol3bus.snoop_fanout::underflows             0      0.00%      0.00% # Request fanout histogram
system.tol3bus.snoop_fanout::0               72307704    100.00%    100.00% # Request fanout histogram
system.tol3bus.snoop_fanout::1                    277      0.00%    100.00% # Request fanout histogram
system.tol3bus.snoop_fanout::overflows              0      0.00%    100.00% # Request fanout histogram
system.tol3bus.snoop_fanout::min_value              0                       # Request fanout histogram
system.tol3bus.snoop_fanout::max_value              1                       # Request fanout histogram
system.tol3bus.snoop_fanout::total           72307981                       # Request fanout histogram
system.tol3bus.reqLayer0.occupancy        34929804231                       # Layer occupancy (ticks)
system.tol3bus.reqLayer0.utilization              0.5                       # Layer utilization (%)
system.tol3bus.respLayer0.occupancy       25405395840                       # Layer occupancy (ticks)
system.tol3bus.respLayer0.utilization             0.4                       # Layer utilization (%)

---------- End Simulation Statistics   ----------
