
---------- Begin Simulation Statistics ----------
sim_seconds                                  3.815387                       # Number of seconds simulated
sim_ticks                                3815387362431                       # Number of ticks simulated
final_tick                               147292375679505                       # Number of ticks from beginning of simulation (restored from checkpoints and never reset)
sim_freq                                 1000000000000                       # Frequency of simulated ticks
host_inst_rate                                 260634                       # Simulator instruction rate (inst/s)
host_op_rate                                   260634                       # Simulator op (including micro ops) rate (op/s)
host_tick_rate                              828682522                       # Simulator tick rate (ticks/s)
host_mem_usage                                2541820                       # Number of bytes of host memory used
host_seconds                                  4604.16                       # Real time elapsed on the host
sim_insts                                  1200000006                       # Number of instructions simulated
sim_ops                                    1200000006                       # Number of ops (including micro ops) simulated
system.voltage_domain.voltage                       1                       # Voltage in Volts
system.clk_domain.clock                          1000                       # Clock period in ticks
system.mem_ctrls0.pwrStateResidencyTicks::UNDEFINED 147292375679505                       # Cumulative time (in ticks) in various power states
system.mem_ctrls0.bytes_read::cpu.inst            128                       # Number of bytes read from this memory
system.mem_ctrls0.bytes_read::cpu.data            256                       # Number of bytes read from this memory
system.mem_ctrls0.bytes_read::switch_cpus.inst        20864                       # Number of bytes read from this memory
system.mem_ctrls0.bytes_read::switch_cpus.data    481005824                       # Number of bytes read from this memory
system.mem_ctrls0.bytes_read::switch_cpus_1.inst         6720                       # Number of bytes read from this memory
system.mem_ctrls0.bytes_read::switch_cpus_1.data     84997824                       # Number of bytes read from this memory
system.mem_ctrls0.bytes_read::total         566031616                       # Number of bytes read from this memory
system.mem_ctrls0.bytes_inst_read::cpu.inst          128                       # Number of instructions bytes read from this memory
system.mem_ctrls0.bytes_inst_read::switch_cpus.inst        20864                       # Number of instructions bytes read from this memory
system.mem_ctrls0.bytes_inst_read::switch_cpus_1.inst         6720                       # Number of instructions bytes read from this memory
system.mem_ctrls0.bytes_inst_read::total        27712                       # Number of instructions bytes read from this memory
system.mem_ctrls0.bytes_written::writebacks    280551488                       # Number of bytes written to this memory
system.mem_ctrls0.bytes_written::total      280551488                       # Number of bytes written to this memory
system.mem_ctrls0.num_reads::cpu.inst               2                       # Number of read requests responded to by this memory
system.mem_ctrls0.num_reads::cpu.data               4                       # Number of read requests responded to by this memory
system.mem_ctrls0.num_reads::switch_cpus.inst          326                       # Number of read requests responded to by this memory
system.mem_ctrls0.num_reads::switch_cpus.data      7515716                       # Number of read requests responded to by this memory
system.mem_ctrls0.num_reads::switch_cpus_1.inst          105                       # Number of read requests responded to by this memory
system.mem_ctrls0.num_reads::switch_cpus_1.data      1328091                       # Number of read requests responded to by this memory
system.mem_ctrls0.num_reads::total            8844244                       # Number of read requests responded to by this memory
system.mem_ctrls0.num_writes::writebacks      4383617                       # Number of write requests responded to by this memory
system.mem_ctrls0.num_writes::total           4383617                       # Number of write requests responded to by this memory
system.mem_ctrls0.bw_read::cpu.inst                34                       # Total read bandwidth from this memory (bytes/s)
system.mem_ctrls0.bw_read::cpu.data                67                       # Total read bandwidth from this memory (bytes/s)
system.mem_ctrls0.bw_read::switch_cpus.inst         5468                       # Total read bandwidth from this memory (bytes/s)
system.mem_ctrls0.bw_read::switch_cpus.data    126069984                       # Total read bandwidth from this memory (bytes/s)
system.mem_ctrls0.bw_read::switch_cpus_1.inst         1761                       # Total read bandwidth from this memory (bytes/s)
system.mem_ctrls0.bw_read::switch_cpus_1.data     22277639                       # Total read bandwidth from this memory (bytes/s)
system.mem_ctrls0.bw_read::total            148354954                       # Total read bandwidth from this memory (bytes/s)
system.mem_ctrls0.bw_inst_read::cpu.inst           34                       # Instruction read bandwidth from this memory (bytes/s)
system.mem_ctrls0.bw_inst_read::switch_cpus.inst         5468                       # Instruction read bandwidth from this memory (bytes/s)
system.mem_ctrls0.bw_inst_read::switch_cpus_1.inst         1761                       # Instruction read bandwidth from this memory (bytes/s)
system.mem_ctrls0.bw_inst_read::total            7263                       # Instruction read bandwidth from this memory (bytes/s)
system.mem_ctrls0.bw_write::writebacks       73531587                       # Write bandwidth from this memory (bytes/s)
system.mem_ctrls0.bw_write::total            73531587                       # Write bandwidth from this memory (bytes/s)
system.mem_ctrls0.bw_total::writebacks       73531587                       # Total bandwidth to/from this memory (bytes/s)
system.mem_ctrls0.bw_total::cpu.inst               34                       # Total bandwidth to/from this memory (bytes/s)
system.mem_ctrls0.bw_total::cpu.data               67                       # Total bandwidth to/from this memory (bytes/s)
system.mem_ctrls0.bw_total::switch_cpus.inst         5468                       # Total bandwidth to/from this memory (bytes/s)
system.mem_ctrls0.bw_total::switch_cpus.data    126069984                       # Total bandwidth to/from this memory (bytes/s)
system.mem_ctrls0.bw_total::switch_cpus_1.inst         1761                       # Total bandwidth to/from this memory (bytes/s)
system.mem_ctrls0.bw_total::switch_cpus_1.data     22277639                       # Total bandwidth to/from this memory (bytes/s)
system.mem_ctrls0.bw_total::total           221886541                       # Total bandwidth to/from this memory (bytes/s)
system.mem_ctrls0.readReqs                    8844244                       # Number of read requests accepted
system.mem_ctrls0.writeReqs                   4383617                       # Number of write requests accepted
system.mem_ctrls0.readBursts                  8844244                       # Number of DRAM read bursts, including those serviced by the write queue
system.mem_ctrls0.writeBursts                 4383617                       # Number of DRAM write bursts, including those merged in the write queue
system.mem_ctrls0.bytesReadDRAM             566030208                       # Total number of bytes read from DRAM
system.mem_ctrls0.bytesReadWrQ                   1408                       # Total number of bytes read from write queue
system.mem_ctrls0.bytesWritten              280550016                       # Total number of bytes written to DRAM
system.mem_ctrls0.bytesReadSys              566031616                       # Total read bytes from the system interface side
system.mem_ctrls0.bytesWrittenSys           280551488                       # Total written bytes from the system interface side
system.mem_ctrls0.servicedByWrQ                    22                       # Number of DRAM read bursts serviced by the write queue
system.mem_ctrls0.mergedWrBursts                    0                       # Number of DRAM write bursts merged with an existing one
system.mem_ctrls0.neitherReadNorWriteReqs            0                       # Number of requests that are neither read nor write
system.mem_ctrls0.perBankRdBursts::0           552523                       # Per bank write bursts
system.mem_ctrls0.perBankRdBursts::1           551331                       # Per bank write bursts
system.mem_ctrls0.perBankRdBursts::2           552677                       # Per bank write bursts
system.mem_ctrls0.perBankRdBursts::3           553893                       # Per bank write bursts
system.mem_ctrls0.perBankRdBursts::4           553514                       # Per bank write bursts
system.mem_ctrls0.perBankRdBursts::5           552720                       # Per bank write bursts
system.mem_ctrls0.perBankRdBursts::6           552435                       # Per bank write bursts
system.mem_ctrls0.perBankRdBursts::7           553137                       # Per bank write bursts
system.mem_ctrls0.perBankRdBursts::8           554221                       # Per bank write bursts
system.mem_ctrls0.perBankRdBursts::9           551390                       # Per bank write bursts
system.mem_ctrls0.perBankRdBursts::10          550161                       # Per bank write bursts
system.mem_ctrls0.perBankRdBursts::11          552450                       # Per bank write bursts
system.mem_ctrls0.perBankRdBursts::12          553451                       # Per bank write bursts
system.mem_ctrls0.perBankRdBursts::13          554124                       # Per bank write bursts
system.mem_ctrls0.perBankRdBursts::14          553841                       # Per bank write bursts
system.mem_ctrls0.perBankRdBursts::15          552354                       # Per bank write bursts
system.mem_ctrls0.perBankWrBursts::0           275433                       # Per bank write bursts
system.mem_ctrls0.perBankWrBursts::1           273948                       # Per bank write bursts
system.mem_ctrls0.perBankWrBursts::2           273379                       # Per bank write bursts
system.mem_ctrls0.perBankWrBursts::3           274123                       # Per bank write bursts
system.mem_ctrls0.perBankWrBursts::4           274304                       # Per bank write bursts
system.mem_ctrls0.perBankWrBursts::5           274066                       # Per bank write bursts
system.mem_ctrls0.perBankWrBursts::6           273940                       # Per bank write bursts
system.mem_ctrls0.perBankWrBursts::7           273465                       # Per bank write bursts
system.mem_ctrls0.perBankWrBursts::8           273248                       # Per bank write bursts
system.mem_ctrls0.perBankWrBursts::9           272860                       # Per bank write bursts
system.mem_ctrls0.perBankWrBursts::10          273799                       # Per bank write bursts
system.mem_ctrls0.perBankWrBursts::11          275402                       # Per bank write bursts
system.mem_ctrls0.perBankWrBursts::12          274273                       # Per bank write bursts
system.mem_ctrls0.perBankWrBursts::13          273051                       # Per bank write bursts
system.mem_ctrls0.perBankWrBursts::14          273446                       # Per bank write bursts
system.mem_ctrls0.perBankWrBursts::15          274857                       # Per bank write bursts
system.mem_ctrls0.numRdRetry                        0                       # Number of times read queue was full causing retry
system.mem_ctrls0.numWrRetry                        0                       # Number of times write queue was full causing retry
system.mem_ctrls0.totGap                 3815387281845                       # Total gap between requests
system.mem_ctrls0.readPktSize::0                    0                       # Read request sizes (log2)
system.mem_ctrls0.readPktSize::1                    0                       # Read request sizes (log2)
system.mem_ctrls0.readPktSize::2                    0                       # Read request sizes (log2)
system.mem_ctrls0.readPktSize::3                    0                       # Read request sizes (log2)
system.mem_ctrls0.readPktSize::4                    0                       # Read request sizes (log2)
system.mem_ctrls0.readPktSize::5                    0                       # Read request sizes (log2)
system.mem_ctrls0.readPktSize::6              8844244                       # Read request sizes (log2)
system.mem_ctrls0.writePktSize::0                   0                       # Write request sizes (log2)
system.mem_ctrls0.writePktSize::1                   0                       # Write request sizes (log2)
system.mem_ctrls0.writePktSize::2                   0                       # Write request sizes (log2)
system.mem_ctrls0.writePktSize::3                   0                       # Write request sizes (log2)
system.mem_ctrls0.writePktSize::4                   0                       # Write request sizes (log2)
system.mem_ctrls0.writePktSize::5                   0                       # Write request sizes (log2)
system.mem_ctrls0.writePktSize::6             4383617                       # Write request sizes (log2)
system.mem_ctrls0.rdQLenPdf::0                8413528                       # What read queue length does an incoming req see
system.mem_ctrls0.rdQLenPdf::1                 318718                       # What read queue length does an incoming req see
system.mem_ctrls0.rdQLenPdf::2                  98367                       # What read queue length does an incoming req see
system.mem_ctrls0.rdQLenPdf::3                  13609                       # What read queue length does an incoming req see
system.mem_ctrls0.rdQLenPdf::4                      0                       # What read queue length does an incoming req see
system.mem_ctrls0.rdQLenPdf::5                      0                       # What read queue length does an incoming req see
system.mem_ctrls0.rdQLenPdf::6                      0                       # What read queue length does an incoming req see
system.mem_ctrls0.rdQLenPdf::7                      0                       # What read queue length does an incoming req see
system.mem_ctrls0.rdQLenPdf::8                      0                       # What read queue length does an incoming req see
system.mem_ctrls0.rdQLenPdf::9                      0                       # What read queue length does an incoming req see
system.mem_ctrls0.rdQLenPdf::10                     0                       # What read queue length does an incoming req see
system.mem_ctrls0.rdQLenPdf::11                     0                       # What read queue length does an incoming req see
system.mem_ctrls0.rdQLenPdf::12                     0                       # What read queue length does an incoming req see
system.mem_ctrls0.rdQLenPdf::13                     0                       # What read queue length does an incoming req see
system.mem_ctrls0.rdQLenPdf::14                     0                       # What read queue length does an incoming req see
system.mem_ctrls0.rdQLenPdf::15                     0                       # What read queue length does an incoming req see
system.mem_ctrls0.rdQLenPdf::16                     0                       # What read queue length does an incoming req see
system.mem_ctrls0.rdQLenPdf::17                     0                       # What read queue length does an incoming req see
system.mem_ctrls0.rdQLenPdf::18                     0                       # What read queue length does an incoming req see
system.mem_ctrls0.rdQLenPdf::19                     0                       # What read queue length does an incoming req see
system.mem_ctrls0.rdQLenPdf::20                     0                       # What read queue length does an incoming req see
system.mem_ctrls0.rdQLenPdf::21                     0                       # What read queue length does an incoming req see
system.mem_ctrls0.rdQLenPdf::22                     0                       # What read queue length does an incoming req see
system.mem_ctrls0.rdQLenPdf::23                     0                       # What read queue length does an incoming req see
system.mem_ctrls0.rdQLenPdf::24                     0                       # What read queue length does an incoming req see
system.mem_ctrls0.rdQLenPdf::25                     0                       # What read queue length does an incoming req see
system.mem_ctrls0.rdQLenPdf::26                     0                       # What read queue length does an incoming req see
system.mem_ctrls0.rdQLenPdf::27                     0                       # What read queue length does an incoming req see
system.mem_ctrls0.rdQLenPdf::28                     0                       # What read queue length does an incoming req see
system.mem_ctrls0.rdQLenPdf::29                     0                       # What read queue length does an incoming req see
system.mem_ctrls0.rdQLenPdf::30                     0                       # What read queue length does an incoming req see
system.mem_ctrls0.rdQLenPdf::31                     0                       # What read queue length does an incoming req see
system.mem_ctrls0.wrQLenPdf::0                      2                       # What write queue length does an incoming req see
system.mem_ctrls0.wrQLenPdf::1                      2                       # What write queue length does an incoming req see
system.mem_ctrls0.wrQLenPdf::2                      2                       # What write queue length does an incoming req see
system.mem_ctrls0.wrQLenPdf::3                      2                       # What write queue length does an incoming req see
system.mem_ctrls0.wrQLenPdf::4                      2                       # What write queue length does an incoming req see
system.mem_ctrls0.wrQLenPdf::5                      2                       # What write queue length does an incoming req see
system.mem_ctrls0.wrQLenPdf::6                      2                       # What write queue length does an incoming req see
system.mem_ctrls0.wrQLenPdf::7                      2                       # What write queue length does an incoming req see
system.mem_ctrls0.wrQLenPdf::8                      2                       # What write queue length does an incoming req see
system.mem_ctrls0.wrQLenPdf::9                      2                       # What write queue length does an incoming req see
system.mem_ctrls0.wrQLenPdf::10                     2                       # What write queue length does an incoming req see
system.mem_ctrls0.wrQLenPdf::11                     2                       # What write queue length does an incoming req see
system.mem_ctrls0.wrQLenPdf::12                     2                       # What write queue length does an incoming req see
system.mem_ctrls0.wrQLenPdf::13                     2                       # What write queue length does an incoming req see
system.mem_ctrls0.wrQLenPdf::14                     2                       # What write queue length does an incoming req see
system.mem_ctrls0.wrQLenPdf::15                201269                       # What write queue length does an incoming req see
system.mem_ctrls0.wrQLenPdf::16                210866                       # What write queue length does an incoming req see
system.mem_ctrls0.wrQLenPdf::17                243877                       # What write queue length does an incoming req see
system.mem_ctrls0.wrQLenPdf::18                247419                       # What write queue length does an incoming req see
system.mem_ctrls0.wrQLenPdf::19                247846                       # What write queue length does an incoming req see
system.mem_ctrls0.wrQLenPdf::20                247975                       # What write queue length does an incoming req see
system.mem_ctrls0.wrQLenPdf::21                248218                       # What write queue length does an incoming req see
system.mem_ctrls0.wrQLenPdf::22                248693                       # What write queue length does an incoming req see
system.mem_ctrls0.wrQLenPdf::23                248903                       # What write queue length does an incoming req see
system.mem_ctrls0.wrQLenPdf::24                248599                       # What write queue length does an incoming req see
system.mem_ctrls0.wrQLenPdf::25                248388                       # What write queue length does an incoming req see
system.mem_ctrls0.wrQLenPdf::26                248364                       # What write queue length does an incoming req see
system.mem_ctrls0.wrQLenPdf::27                248524                       # What write queue length does an incoming req see
system.mem_ctrls0.wrQLenPdf::28                248669                       # What write queue length does an incoming req see
system.mem_ctrls0.wrQLenPdf::29                249000                       # What write queue length does an incoming req see
system.mem_ctrls0.wrQLenPdf::30                251300                       # What write queue length does an incoming req see
system.mem_ctrls0.wrQLenPdf::31                247820                       # What write queue length does an incoming req see
system.mem_ctrls0.wrQLenPdf::32                247561                       # What write queue length does an incoming req see
system.mem_ctrls0.wrQLenPdf::33                   254                       # What write queue length does an incoming req see
system.mem_ctrls0.wrQLenPdf::34                    33                       # What write queue length does an incoming req see
system.mem_ctrls0.wrQLenPdf::35                     8                       # What write queue length does an incoming req see
system.mem_ctrls0.wrQLenPdf::36                     1                       # What write queue length does an incoming req see
system.mem_ctrls0.wrQLenPdf::37                     0                       # What write queue length does an incoming req see
system.mem_ctrls0.wrQLenPdf::38                     0                       # What write queue length does an incoming req see
system.mem_ctrls0.wrQLenPdf::39                     0                       # What write queue length does an incoming req see
system.mem_ctrls0.wrQLenPdf::40                     0                       # What write queue length does an incoming req see
system.mem_ctrls0.wrQLenPdf::41                     0                       # What write queue length does an incoming req see
system.mem_ctrls0.wrQLenPdf::42                     0                       # What write queue length does an incoming req see
system.mem_ctrls0.wrQLenPdf::43                     0                       # What write queue length does an incoming req see
system.mem_ctrls0.wrQLenPdf::44                     0                       # What write queue length does an incoming req see
system.mem_ctrls0.wrQLenPdf::45                     0                       # What write queue length does an incoming req see
system.mem_ctrls0.wrQLenPdf::46                     0                       # What write queue length does an incoming req see
system.mem_ctrls0.wrQLenPdf::47                     0                       # What write queue length does an incoming req see
system.mem_ctrls0.wrQLenPdf::48                     0                       # What write queue length does an incoming req see
system.mem_ctrls0.wrQLenPdf::49                     0                       # What write queue length does an incoming req see
system.mem_ctrls0.wrQLenPdf::50                     0                       # What write queue length does an incoming req see
system.mem_ctrls0.wrQLenPdf::51                     0                       # What write queue length does an incoming req see
system.mem_ctrls0.wrQLenPdf::52                     0                       # What write queue length does an incoming req see
system.mem_ctrls0.wrQLenPdf::53                     0                       # What write queue length does an incoming req see
system.mem_ctrls0.wrQLenPdf::54                     0                       # What write queue length does an incoming req see
system.mem_ctrls0.wrQLenPdf::55                     0                       # What write queue length does an incoming req see
system.mem_ctrls0.wrQLenPdf::56                     0                       # What write queue length does an incoming req see
system.mem_ctrls0.wrQLenPdf::57                     0                       # What write queue length does an incoming req see
system.mem_ctrls0.wrQLenPdf::58                     0                       # What write queue length does an incoming req see
system.mem_ctrls0.wrQLenPdf::59                     0                       # What write queue length does an incoming req see
system.mem_ctrls0.wrQLenPdf::60                     0                       # What write queue length does an incoming req see
system.mem_ctrls0.wrQLenPdf::61                     0                       # What write queue length does an incoming req see
system.mem_ctrls0.wrQLenPdf::62                     0                       # What write queue length does an incoming req see
system.mem_ctrls0.wrQLenPdf::63                     0                       # What write queue length does an incoming req see
system.mem_ctrls0.bytesPerActivate::samples      9284202                       # Bytes accessed per row activation
system.mem_ctrls0.bytesPerActivate::mean    91.184904                       # Bytes accessed per row activation
system.mem_ctrls0.bytesPerActivate::gmean    81.881332                       # Bytes accessed per row activation
system.mem_ctrls0.bytesPerActivate::stdev    54.872599                       # Bytes accessed per row activation
system.mem_ctrls0.bytesPerActivate::0-127      6616556     71.27%     71.27% # Bytes accessed per row activation
system.mem_ctrls0.bytesPerActivate::128-255      2429456     26.17%     97.43% # Bytes accessed per row activation
system.mem_ctrls0.bytesPerActivate::256-383       183752      1.98%     99.41% # Bytes accessed per row activation
system.mem_ctrls0.bytesPerActivate::384-511        37073      0.40%     99.81% # Bytes accessed per row activation
system.mem_ctrls0.bytesPerActivate::512-639        10681      0.12%     99.93% # Bytes accessed per row activation
system.mem_ctrls0.bytesPerActivate::640-767         3903      0.04%     99.97% # Bytes accessed per row activation
system.mem_ctrls0.bytesPerActivate::768-895         2205      0.02%     99.99% # Bytes accessed per row activation
system.mem_ctrls0.bytesPerActivate::896-1023          478      0.01%    100.00% # Bytes accessed per row activation
system.mem_ctrls0.bytesPerActivate::1024-1151           98      0.00%    100.00% # Bytes accessed per row activation
system.mem_ctrls0.bytesPerActivate::total      9284202                       # Bytes accessed per row activation
system.mem_ctrls0.rdPerTurnAround::samples       247354                       # Reads before turning the bus around for writes
system.mem_ctrls0.rdPerTurnAround::mean     35.755274                       # Reads before turning the bus around for writes
system.mem_ctrls0.rdPerTurnAround::stdev    56.993377                       # Reads before turning the bus around for writes
system.mem_ctrls0.rdPerTurnAround::0-1023       247352    100.00%    100.00% # Reads before turning the bus around for writes
system.mem_ctrls0.rdPerTurnAround::1024-2047            1      0.00%    100.00% # Reads before turning the bus around for writes
system.mem_ctrls0.rdPerTurnAround::27648-28671            1      0.00%    100.00% # Reads before turning the bus around for writes
system.mem_ctrls0.rdPerTurnAround::total       247354                       # Reads before turning the bus around for writes
system.mem_ctrls0.wrPerTurnAround::samples       247354                       # Writes before turning the bus around for reads
system.mem_ctrls0.wrPerTurnAround::mean     17.721945                       # Writes before turning the bus around for reads
system.mem_ctrls0.wrPerTurnAround::gmean    17.704234                       # Writes before turning the bus around for reads
system.mem_ctrls0.wrPerTurnAround::stdev     0.777062                       # Writes before turning the bus around for reads
system.mem_ctrls0.wrPerTurnAround::16           35923     14.52%     14.52% # Writes before turning the bus around for reads
system.mem_ctrls0.wrPerTurnAround::17            9034      3.65%     18.18% # Writes before turning the bus around for reads
system.mem_ctrls0.wrPerTurnAround::18          191852     77.56%     95.74% # Writes before turning the bus around for reads
system.mem_ctrls0.wrPerTurnAround::19            9187      3.71%     99.45% # Writes before turning the bus around for reads
system.mem_ctrls0.wrPerTurnAround::20            1210      0.49%     99.94% # Writes before turning the bus around for reads
system.mem_ctrls0.wrPerTurnAround::21             112      0.05%     99.99% # Writes before turning the bus around for reads
system.mem_ctrls0.wrPerTurnAround::22              25      0.01%    100.00% # Writes before turning the bus around for reads
system.mem_ctrls0.wrPerTurnAround::23               8      0.00%    100.00% # Writes before turning the bus around for reads
system.mem_ctrls0.wrPerTurnAround::24               2      0.00%    100.00% # Writes before turning the bus around for reads
system.mem_ctrls0.wrPerTurnAround::25               1      0.00%    100.00% # Writes before turning the bus around for reads
system.mem_ctrls0.wrPerTurnAround::total       247354                       # Writes before turning the bus around for reads
system.mem_ctrls0.totQLat                235894218715                       # Total ticks spent queuing
system.mem_ctrls0.totMemAccLat           401723381215                       # Total ticks spent from burst creation until serviced by the DRAM
system.mem_ctrls0.totBusLat               44221110000                       # Total ticks spent in databus transfers
system.mem_ctrls0.avgQLat                    26672.13                       # Average queueing delay per DRAM burst
system.mem_ctrls0.avgBusLat                   5000.00                       # Average bus latency per DRAM burst
system.mem_ctrls0.avgMemAccLat               45422.13                       # Average memory access latency per DRAM burst
system.mem_ctrls0.avgRdBW                      148.35                       # Average DRAM read bandwidth in MiByte/s
system.mem_ctrls0.avgWrBW                       73.53                       # Average achieved write bandwidth in MiByte/s
system.mem_ctrls0.avgRdBWSys                   148.35                       # Average system read bandwidth in MiByte/s
system.mem_ctrls0.avgWrBWSys                    73.53                       # Average system write bandwidth in MiByte/s
system.mem_ctrls0.peakBW                     12800.00                       # Theoretical peak bandwidth in MiByte/s
system.mem_ctrls0.busUtil                        1.73                       # Data bus utilization in percentage
system.mem_ctrls0.busUtilRead                    1.16                       # Data bus utilization in percentage for reads
system.mem_ctrls0.busUtilWrite                   0.57                       # Data bus utilization in percentage for writes
system.mem_ctrls0.avgRdQLen                      1.03                       # Average read queue length when enqueuing
system.mem_ctrls0.avgWrQLen                     24.56                       # Average write queue length when enqueuing
system.mem_ctrls0.readRowHits                 2757667                       # Number of row buffer hits during reads
system.mem_ctrls0.writeRowHits                1185937                       # Number of row buffer hits during writes
system.mem_ctrls0.readRowHitRate                31.18                       # Row buffer hit rate for reads
system.mem_ctrls0.writeRowHitRate               27.05                       # Row buffer hit rate for writes
system.mem_ctrls0.avgGap                    288435.70                       # Average gap between requests
system.mem_ctrls0.pageHitRate                   29.81                       # Row buffer hit rate, read and write combined
system.mem_ctrls0_0.actEnergy             33141680880                       # Energy for activate commands per rank (pJ)
system.mem_ctrls0_0.preEnergy             17615202165                       # Energy for precharge commands per rank (pJ)
system.mem_ctrls0_0.readEnergy            31574722200                       # Energy for read commands per rank (pJ)
system.mem_ctrls0_0.writeEnergy           11445674760                       # Energy for write commands per rank (pJ)
system.mem_ctrls0_0.refreshEnergy        299844133680.000061                       # Energy for refresh commands per rank (pJ)
system.mem_ctrls0_0.actBackEnergy        233895582960                       # Energy for active background per rank (pJ)
system.mem_ctrls0_0.preBackEnergy          7824049920                       # Energy for precharge background per rank (pJ)
system.mem_ctrls0_0.actPowerDownEnergy   1287461742840                       # Energy for active power-down per rank (pJ)
system.mem_ctrls0_0.prePowerDownEnergy   147160018080                       # Energy for precharge power-down per rank (pJ)
system.mem_ctrls0_0.selfRefreshEnergy     22576214625                       # Energy for self refresh per rank (pJ)
system.mem_ctrls0_0.totalEnergy          2092562335050                       # Total energy per rank (pJ)
system.mem_ctrls0_0.averagePower           548.453442                       # Core power per rank (mW)
system.mem_ctrls0_0.totalIdleTime        3282034365823                       # Total Idle time Per DRAM Rank
system.mem_ctrls0_0.memoryStateTime::IDLE   4992409445                       # Time in different power states
system.mem_ctrls0_0.memoryStateTime::REF 126888926000                       # Time in different power states
system.mem_ctrls0_0.memoryStateTime::SREF  75421207911                       # Time in different power states
system.mem_ctrls0_0.memoryStateTime::PRE_PDN 383232462611                       # Time in different power states
system.mem_ctrls0_0.memoryStateTime::ACT 401471539726                       # Time in different power states
system.mem_ctrls0_0.memoryStateTime::ACT_PDN 2823380816738                       # Time in different power states
system.mem_ctrls0_1.actEnergy             33147592800                       # Energy for activate commands per rank (pJ)
system.mem_ctrls0_1.preEnergy             17618344425                       # Energy for precharge commands per rank (pJ)
system.mem_ctrls0_1.readEnergy            31573022880                       # Energy for read commands per rank (pJ)
system.mem_ctrls0_1.writeEnergy           11436685920                       # Energy for write commands per rank (pJ)
system.mem_ctrls0_1.refreshEnergy        299691702960.000061                       # Energy for refresh commands per rank (pJ)
system.mem_ctrls0_1.actBackEnergy        232793890380                       # Energy for active background per rank (pJ)
system.mem_ctrls0_1.preBackEnergy          7809877440                       # Energy for precharge background per rank (pJ)
system.mem_ctrls0_1.actPowerDownEnergy   1289959795770                       # Energy for active power-down per rank (pJ)
system.mem_ctrls0_1.prePowerDownEnergy   146087796960                       # Energy for precharge power-down per rank (pJ)
system.mem_ctrls0_1.selfRefreshEnergy     22356158835                       # Energy for self refresh per rank (pJ)
system.mem_ctrls0_1.totalEnergy          2092501260480                       # Total energy per rank (pJ)
system.mem_ctrls0_1.averagePower           548.437433                       # Core power per rank (mW)
system.mem_ctrls0_1.totalIdleTime        3284491397673                       # Total Idle time Per DRAM Rank
system.mem_ctrls0_1.memoryStateTime::IDLE   4919151951                       # Time in different power states
system.mem_ctrls0_1.memoryStateTime::REF 126822334000                       # Time in different power states
system.mem_ctrls0_1.memoryStateTime::SREF  75181407975                       # Time in different power states
system.mem_ctrls0_1.memoryStateTime::PRE_PDN 380433474939                       # Time in different power states
system.mem_ctrls0_1.memoryStateTime::ACT 399154478807                       # Time in different power states
system.mem_ctrls0_1.memoryStateTime::ACT_PDN 2828876514759                       # Time in different power states
system.mem_ctrls1.pwrStateResidencyTicks::UNDEFINED 147292375679505                       # Cumulative time (in ticks) in various power states
system.mem_ctrls1.bytes_read::cpu.inst             64                       # Number of bytes read from this memory
system.mem_ctrls1.bytes_read::cpu.data             64                       # Number of bytes read from this memory
system.mem_ctrls1.bytes_read::switch_cpus.inst        20288                       # Number of bytes read from this memory
system.mem_ctrls1.bytes_read::switch_cpus.data    481050752                       # Number of bytes read from this memory
system.mem_ctrls1.bytes_read::switch_cpus_1.inst         6656                       # Number of bytes read from this memory
system.mem_ctrls1.bytes_read::switch_cpus_1.data     85001600                       # Number of bytes read from this memory
system.mem_ctrls1.bytes_read::total         566079424                       # Number of bytes read from this memory
system.mem_ctrls1.bytes_inst_read::cpu.inst           64                       # Number of instructions bytes read from this memory
system.mem_ctrls1.bytes_inst_read::switch_cpus.inst        20288                       # Number of instructions bytes read from this memory
system.mem_ctrls1.bytes_inst_read::switch_cpus_1.inst         6656                       # Number of instructions bytes read from this memory
system.mem_ctrls1.bytes_inst_read::total        27008                       # Number of instructions bytes read from this memory
system.mem_ctrls1.bytes_written::writebacks    280548864                       # Number of bytes written to this memory
system.mem_ctrls1.bytes_written::total      280548864                       # Number of bytes written to this memory
system.mem_ctrls1.num_reads::cpu.inst               1                       # Number of read requests responded to by this memory
system.mem_ctrls1.num_reads::cpu.data               1                       # Number of read requests responded to by this memory
system.mem_ctrls1.num_reads::switch_cpus.inst          317                       # Number of read requests responded to by this memory
system.mem_ctrls1.num_reads::switch_cpus.data      7516418                       # Number of read requests responded to by this memory
system.mem_ctrls1.num_reads::switch_cpus_1.inst          104                       # Number of read requests responded to by this memory
system.mem_ctrls1.num_reads::switch_cpus_1.data      1328150                       # Number of read requests responded to by this memory
system.mem_ctrls1.num_reads::total            8844991                       # Number of read requests responded to by this memory
system.mem_ctrls1.num_writes::writebacks      4383576                       # Number of write requests responded to by this memory
system.mem_ctrls1.num_writes::total           4383576                       # Number of write requests responded to by this memory
system.mem_ctrls1.bw_read::cpu.inst                17                       # Total read bandwidth from this memory (bytes/s)
system.mem_ctrls1.bw_read::cpu.data                17                       # Total read bandwidth from this memory (bytes/s)
system.mem_ctrls1.bw_read::switch_cpus.inst         5317                       # Total read bandwidth from this memory (bytes/s)
system.mem_ctrls1.bw_read::switch_cpus.data    126081760                       # Total read bandwidth from this memory (bytes/s)
system.mem_ctrls1.bw_read::switch_cpus_1.inst         1745                       # Total read bandwidth from this memory (bytes/s)
system.mem_ctrls1.bw_read::switch_cpus_1.data     22278629                       # Total read bandwidth from this memory (bytes/s)
system.mem_ctrls1.bw_read::total            148367484                       # Total read bandwidth from this memory (bytes/s)
system.mem_ctrls1.bw_inst_read::cpu.inst           17                       # Instruction read bandwidth from this memory (bytes/s)
system.mem_ctrls1.bw_inst_read::switch_cpus.inst         5317                       # Instruction read bandwidth from this memory (bytes/s)
system.mem_ctrls1.bw_inst_read::switch_cpus_1.inst         1745                       # Instruction read bandwidth from this memory (bytes/s)
system.mem_ctrls1.bw_inst_read::total            7079                       # Instruction read bandwidth from this memory (bytes/s)
system.mem_ctrls1.bw_write::writebacks       73530899                       # Write bandwidth from this memory (bytes/s)
system.mem_ctrls1.bw_write::total            73530899                       # Write bandwidth from this memory (bytes/s)
system.mem_ctrls1.bw_total::writebacks       73530899                       # Total bandwidth to/from this memory (bytes/s)
system.mem_ctrls1.bw_total::cpu.inst               17                       # Total bandwidth to/from this memory (bytes/s)
system.mem_ctrls1.bw_total::cpu.data               17                       # Total bandwidth to/from this memory (bytes/s)
system.mem_ctrls1.bw_total::switch_cpus.inst         5317                       # Total bandwidth to/from this memory (bytes/s)
system.mem_ctrls1.bw_total::switch_cpus.data    126081760                       # Total bandwidth to/from this memory (bytes/s)
system.mem_ctrls1.bw_total::switch_cpus_1.inst         1745                       # Total bandwidth to/from this memory (bytes/s)
system.mem_ctrls1.bw_total::switch_cpus_1.data     22278629                       # Total bandwidth to/from this memory (bytes/s)
system.mem_ctrls1.bw_total::total           221898383                       # Total bandwidth to/from this memory (bytes/s)
system.mem_ctrls1.readReqs                    8844991                       # Number of read requests accepted
system.mem_ctrls1.writeReqs                   4383576                       # Number of write requests accepted
system.mem_ctrls1.readBursts                  8844991                       # Number of DRAM read bursts, including those serviced by the write queue
system.mem_ctrls1.writeBursts                 4383576                       # Number of DRAM write bursts, including those merged in the write queue
system.mem_ctrls1.bytesReadDRAM             566077824                       # Total number of bytes read from DRAM
system.mem_ctrls1.bytesReadWrQ                   1600                       # Total number of bytes read from write queue
system.mem_ctrls1.bytesWritten              280547392                       # Total number of bytes written to DRAM
system.mem_ctrls1.bytesReadSys              566079424                       # Total read bytes from the system interface side
system.mem_ctrls1.bytesWrittenSys           280548864                       # Total written bytes from the system interface side
system.mem_ctrls1.servicedByWrQ                    25                       # Number of DRAM read bursts serviced by the write queue
system.mem_ctrls1.mergedWrBursts                    0                       # Number of DRAM write bursts merged with an existing one
system.mem_ctrls1.neitherReadNorWriteReqs            0                       # Number of requests that are neither read nor write
system.mem_ctrls1.perBankRdBursts::0           552382                       # Per bank write bursts
system.mem_ctrls1.perBankRdBursts::1           551767                       # Per bank write bursts
system.mem_ctrls1.perBankRdBursts::2           552148                       # Per bank write bursts
system.mem_ctrls1.perBankRdBursts::3           554294                       # Per bank write bursts
system.mem_ctrls1.perBankRdBursts::4           553608                       # Per bank write bursts
system.mem_ctrls1.perBankRdBursts::5           552740                       # Per bank write bursts
system.mem_ctrls1.perBankRdBursts::6           552568                       # Per bank write bursts
system.mem_ctrls1.perBankRdBursts::7           553057                       # Per bank write bursts
system.mem_ctrls1.perBankRdBursts::8           554556                       # Per bank write bursts
system.mem_ctrls1.perBankRdBursts::9           551155                       # Per bank write bursts
system.mem_ctrls1.perBankRdBursts::10          550547                       # Per bank write bursts
system.mem_ctrls1.perBankRdBursts::11          552075                       # Per bank write bursts
system.mem_ctrls1.perBankRdBursts::12          553451                       # Per bank write bursts
system.mem_ctrls1.perBankRdBursts::13          554103                       # Per bank write bursts
system.mem_ctrls1.perBankRdBursts::14          554019                       # Per bank write bursts
system.mem_ctrls1.perBankRdBursts::15          552496                       # Per bank write bursts
system.mem_ctrls1.perBankWrBursts::0           275280                       # Per bank write bursts
system.mem_ctrls1.perBankWrBursts::1           274087                       # Per bank write bursts
system.mem_ctrls1.perBankWrBursts::2           273256                       # Per bank write bursts
system.mem_ctrls1.perBankWrBursts::3           274269                       # Per bank write bursts
system.mem_ctrls1.perBankWrBursts::4           274244                       # Per bank write bursts
system.mem_ctrls1.perBankWrBursts::5           274027                       # Per bank write bursts
system.mem_ctrls1.perBankWrBursts::6           274030                       # Per bank write bursts
system.mem_ctrls1.perBankWrBursts::7           273288                       # Per bank write bursts
system.mem_ctrls1.perBankWrBursts::8           273288                       # Per bank write bursts
system.mem_ctrls1.perBankWrBursts::9           272791                       # Per bank write bursts
system.mem_ctrls1.perBankWrBursts::10          273965                       # Per bank write bursts
system.mem_ctrls1.perBankWrBursts::11          275383                       # Per bank write bursts
system.mem_ctrls1.perBankWrBursts::12          274248                       # Per bank write bursts
system.mem_ctrls1.perBankWrBursts::13          273068                       # Per bank write bursts
system.mem_ctrls1.perBankWrBursts::14          273418                       # Per bank write bursts
system.mem_ctrls1.perBankWrBursts::15          274911                       # Per bank write bursts
system.mem_ctrls1.numRdRetry                        0                       # Number of times read queue was full causing retry
system.mem_ctrls1.numWrRetry                        0                       # Number of times write queue was full causing retry
system.mem_ctrls1.totGap                 3815386950843                       # Total gap between requests
system.mem_ctrls1.readPktSize::0                    0                       # Read request sizes (log2)
system.mem_ctrls1.readPktSize::1                    0                       # Read request sizes (log2)
system.mem_ctrls1.readPktSize::2                    0                       # Read request sizes (log2)
system.mem_ctrls1.readPktSize::3                    0                       # Read request sizes (log2)
system.mem_ctrls1.readPktSize::4                    0                       # Read request sizes (log2)
system.mem_ctrls1.readPktSize::5                    0                       # Read request sizes (log2)
system.mem_ctrls1.readPktSize::6              8844991                       # Read request sizes (log2)
system.mem_ctrls1.writePktSize::0                   0                       # Write request sizes (log2)
system.mem_ctrls1.writePktSize::1                   0                       # Write request sizes (log2)
system.mem_ctrls1.writePktSize::2                   0                       # Write request sizes (log2)
system.mem_ctrls1.writePktSize::3                   0                       # Write request sizes (log2)
system.mem_ctrls1.writePktSize::4                   0                       # Write request sizes (log2)
system.mem_ctrls1.writePktSize::5                   0                       # Write request sizes (log2)
system.mem_ctrls1.writePktSize::6             4383576                       # Write request sizes (log2)
system.mem_ctrls1.rdQLenPdf::0                8413608                       # What read queue length does an incoming req see
system.mem_ctrls1.rdQLenPdf::1                 319165                       # What read queue length does an incoming req see
system.mem_ctrls1.rdQLenPdf::2                  98548                       # What read queue length does an incoming req see
system.mem_ctrls1.rdQLenPdf::3                  13644                       # What read queue length does an incoming req see
system.mem_ctrls1.rdQLenPdf::4                      1                       # What read queue length does an incoming req see
system.mem_ctrls1.rdQLenPdf::5                      0                       # What read queue length does an incoming req see
system.mem_ctrls1.rdQLenPdf::6                      0                       # What read queue length does an incoming req see
system.mem_ctrls1.rdQLenPdf::7                      0                       # What read queue length does an incoming req see
system.mem_ctrls1.rdQLenPdf::8                      0                       # What read queue length does an incoming req see
system.mem_ctrls1.rdQLenPdf::9                      0                       # What read queue length does an incoming req see
system.mem_ctrls1.rdQLenPdf::10                     0                       # What read queue length does an incoming req see
system.mem_ctrls1.rdQLenPdf::11                     0                       # What read queue length does an incoming req see
system.mem_ctrls1.rdQLenPdf::12                     0                       # What read queue length does an incoming req see
system.mem_ctrls1.rdQLenPdf::13                     0                       # What read queue length does an incoming req see
system.mem_ctrls1.rdQLenPdf::14                     0                       # What read queue length does an incoming req see
system.mem_ctrls1.rdQLenPdf::15                     0                       # What read queue length does an incoming req see
system.mem_ctrls1.rdQLenPdf::16                     0                       # What read queue length does an incoming req see
system.mem_ctrls1.rdQLenPdf::17                     0                       # What read queue length does an incoming req see
system.mem_ctrls1.rdQLenPdf::18                     0                       # What read queue length does an incoming req see
system.mem_ctrls1.rdQLenPdf::19                     0                       # What read queue length does an incoming req see
system.mem_ctrls1.rdQLenPdf::20                     0                       # What read queue length does an incoming req see
system.mem_ctrls1.rdQLenPdf::21                     0                       # What read queue length does an incoming req see
system.mem_ctrls1.rdQLenPdf::22                     0                       # What read queue length does an incoming req see
system.mem_ctrls1.rdQLenPdf::23                     0                       # What read queue length does an incoming req see
system.mem_ctrls1.rdQLenPdf::24                     0                       # What read queue length does an incoming req see
system.mem_ctrls1.rdQLenPdf::25                     0                       # What read queue length does an incoming req see
system.mem_ctrls1.rdQLenPdf::26                     0                       # What read queue length does an incoming req see
system.mem_ctrls1.rdQLenPdf::27                     0                       # What read queue length does an incoming req see
system.mem_ctrls1.rdQLenPdf::28                     0                       # What read queue length does an incoming req see
system.mem_ctrls1.rdQLenPdf::29                     0                       # What read queue length does an incoming req see
system.mem_ctrls1.rdQLenPdf::30                     0                       # What read queue length does an incoming req see
system.mem_ctrls1.rdQLenPdf::31                     0                       # What read queue length does an incoming req see
system.mem_ctrls1.wrQLenPdf::0                      2                       # What write queue length does an incoming req see
system.mem_ctrls1.wrQLenPdf::1                      2                       # What write queue length does an incoming req see
system.mem_ctrls1.wrQLenPdf::2                      2                       # What write queue length does an incoming req see
system.mem_ctrls1.wrQLenPdf::3                      2                       # What write queue length does an incoming req see
system.mem_ctrls1.wrQLenPdf::4                      2                       # What write queue length does an incoming req see
system.mem_ctrls1.wrQLenPdf::5                      2                       # What write queue length does an incoming req see
system.mem_ctrls1.wrQLenPdf::6                      2                       # What write queue length does an incoming req see
system.mem_ctrls1.wrQLenPdf::7                      2                       # What write queue length does an incoming req see
system.mem_ctrls1.wrQLenPdf::8                      2                       # What write queue length does an incoming req see
system.mem_ctrls1.wrQLenPdf::9                      2                       # What write queue length does an incoming req see
system.mem_ctrls1.wrQLenPdf::10                     2                       # What write queue length does an incoming req see
system.mem_ctrls1.wrQLenPdf::11                     2                       # What write queue length does an incoming req see
system.mem_ctrls1.wrQLenPdf::12                     2                       # What write queue length does an incoming req see
system.mem_ctrls1.wrQLenPdf::13                     2                       # What write queue length does an incoming req see
system.mem_ctrls1.wrQLenPdf::14                     2                       # What write queue length does an incoming req see
system.mem_ctrls1.wrQLenPdf::15                201258                       # What write queue length does an incoming req see
system.mem_ctrls1.wrQLenPdf::16                210932                       # What write queue length does an incoming req see
system.mem_ctrls1.wrQLenPdf::17                244038                       # What write queue length does an incoming req see
system.mem_ctrls1.wrQLenPdf::18                247389                       # What write queue length does an incoming req see
system.mem_ctrls1.wrQLenPdf::19                247841                       # What write queue length does an incoming req see
system.mem_ctrls1.wrQLenPdf::20                248034                       # What write queue length does an incoming req see
system.mem_ctrls1.wrQLenPdf::21                248188                       # What write queue length does an incoming req see
system.mem_ctrls1.wrQLenPdf::22                248673                       # What write queue length does an incoming req see
system.mem_ctrls1.wrQLenPdf::23                248892                       # What write queue length does an incoming req see
system.mem_ctrls1.wrQLenPdf::24                248593                       # What write queue length does an incoming req see
system.mem_ctrls1.wrQLenPdf::25                248370                       # What write queue length does an incoming req see
system.mem_ctrls1.wrQLenPdf::26                248342                       # What write queue length does an incoming req see
system.mem_ctrls1.wrQLenPdf::27                248526                       # What write queue length does an incoming req see
system.mem_ctrls1.wrQLenPdf::28                248608                       # What write queue length does an incoming req see
system.mem_ctrls1.wrQLenPdf::29                249051                       # What write queue length does an incoming req see
system.mem_ctrls1.wrQLenPdf::30                251184                       # What write queue length does an incoming req see
system.mem_ctrls1.wrQLenPdf::31                247806                       # What write queue length does an incoming req see
system.mem_ctrls1.wrQLenPdf::32                247554                       # What write queue length does an incoming req see
system.mem_ctrls1.wrQLenPdf::33                   219                       # What write queue length does an incoming req see
system.mem_ctrls1.wrQLenPdf::34                    35                       # What write queue length does an incoming req see
system.mem_ctrls1.wrQLenPdf::35                    10                       # What write queue length does an incoming req see
system.mem_ctrls1.wrQLenPdf::36                     3                       # What write queue length does an incoming req see
system.mem_ctrls1.wrQLenPdf::37                     0                       # What write queue length does an incoming req see
system.mem_ctrls1.wrQLenPdf::38                     0                       # What write queue length does an incoming req see
system.mem_ctrls1.wrQLenPdf::39                     0                       # What write queue length does an incoming req see
system.mem_ctrls1.wrQLenPdf::40                     0                       # What write queue length does an incoming req see
system.mem_ctrls1.wrQLenPdf::41                     0                       # What write queue length does an incoming req see
system.mem_ctrls1.wrQLenPdf::42                     0                       # What write queue length does an incoming req see
system.mem_ctrls1.wrQLenPdf::43                     0                       # What write queue length does an incoming req see
system.mem_ctrls1.wrQLenPdf::44                     0                       # What write queue length does an incoming req see
system.mem_ctrls1.wrQLenPdf::45                     0                       # What write queue length does an incoming req see
system.mem_ctrls1.wrQLenPdf::46                     0                       # What write queue length does an incoming req see
system.mem_ctrls1.wrQLenPdf::47                     0                       # What write queue length does an incoming req see
system.mem_ctrls1.wrQLenPdf::48                     0                       # What write queue length does an incoming req see
system.mem_ctrls1.wrQLenPdf::49                     0                       # What write queue length does an incoming req see
system.mem_ctrls1.wrQLenPdf::50                     0                       # What write queue length does an incoming req see
system.mem_ctrls1.wrQLenPdf::51                     0                       # What write queue length does an incoming req see
system.mem_ctrls1.wrQLenPdf::52                     0                       # What write queue length does an incoming req see
system.mem_ctrls1.wrQLenPdf::53                     0                       # What write queue length does an incoming req see
system.mem_ctrls1.wrQLenPdf::54                     0                       # What write queue length does an incoming req see
system.mem_ctrls1.wrQLenPdf::55                     0                       # What write queue length does an incoming req see
system.mem_ctrls1.wrQLenPdf::56                     0                       # What write queue length does an incoming req see
system.mem_ctrls1.wrQLenPdf::57                     0                       # What write queue length does an incoming req see
system.mem_ctrls1.wrQLenPdf::58                     0                       # What write queue length does an incoming req see
system.mem_ctrls1.wrQLenPdf::59                     0                       # What write queue length does an incoming req see
system.mem_ctrls1.wrQLenPdf::60                     0                       # What write queue length does an incoming req see
system.mem_ctrls1.wrQLenPdf::61                     0                       # What write queue length does an incoming req see
system.mem_ctrls1.wrQLenPdf::62                     0                       # What write queue length does an incoming req see
system.mem_ctrls1.wrQLenPdf::63                     0                       # What write queue length does an incoming req see
system.mem_ctrls1.bytesPerActivate::samples      9286339                       # Bytes accessed per row activation
system.mem_ctrls1.bytesPerActivate::mean    91.168848                       # Bytes accessed per row activation
system.mem_ctrls1.bytesPerActivate::gmean    81.871029                       # Bytes accessed per row activation
system.mem_ctrls1.bytesPerActivate::stdev    54.870124                       # Bytes accessed per row activation
system.mem_ctrls1.bytesPerActivate::0-127      6618544     71.27%     71.27% # Bytes accessed per row activation
system.mem_ctrls1.bytesPerActivate::128-255      2430060     26.17%     97.44% # Bytes accessed per row activation
system.mem_ctrls1.bytesPerActivate::256-383       183193      1.97%     99.41% # Bytes accessed per row activation
system.mem_ctrls1.bytesPerActivate::384-511        37131      0.40%     99.81% # Bytes accessed per row activation
system.mem_ctrls1.bytesPerActivate::512-639        10642      0.11%     99.93% # Bytes accessed per row activation
system.mem_ctrls1.bytesPerActivate::640-767         4017      0.04%     99.97% # Bytes accessed per row activation
system.mem_ctrls1.bytesPerActivate::768-895         2164      0.02%     99.99% # Bytes accessed per row activation
system.mem_ctrls1.bytesPerActivate::896-1023          496      0.01%    100.00% # Bytes accessed per row activation
system.mem_ctrls1.bytesPerActivate::1024-1151           92      0.00%    100.00% # Bytes accessed per row activation
system.mem_ctrls1.bytesPerActivate::total      9286339                       # Bytes accessed per row activation
system.mem_ctrls1.rdPerTurnAround::samples       247356                       # Reads before turning the bus around for writes
system.mem_ctrls1.rdPerTurnAround::mean     35.757976                       # Reads before turning the bus around for writes
system.mem_ctrls1.rdPerTurnAround::stdev    57.083134                       # Reads before turning the bus around for writes
system.mem_ctrls1.rdPerTurnAround::0-1023       247354    100.00%    100.00% # Reads before turning the bus around for writes
system.mem_ctrls1.rdPerTurnAround::1024-2047            1      0.00%    100.00% # Reads before turning the bus around for writes
system.mem_ctrls1.rdPerTurnAround::27648-28671            1      0.00%    100.00% # Reads before turning the bus around for writes
system.mem_ctrls1.rdPerTurnAround::total       247356                       # Reads before turning the bus around for writes
system.mem_ctrls1.wrPerTurnAround::samples       247356                       # Writes before turning the bus around for reads
system.mem_ctrls1.wrPerTurnAround::mean     17.721636                       # Writes before turning the bus around for reads
system.mem_ctrls1.wrPerTurnAround::gmean    17.704000                       # Writes before turning the bus around for reads
system.mem_ctrls1.wrPerTurnAround::stdev     0.775382                       # Writes before turning the bus around for reads
system.mem_ctrls1.wrPerTurnAround::15               1      0.00%      0.00% # Writes before turning the bus around for reads
system.mem_ctrls1.wrPerTurnAround::16           35808     14.48%     14.48% # Writes before turning the bus around for reads
system.mem_ctrls1.wrPerTurnAround::17            9146      3.70%     18.17% # Writes before turning the bus around for reads
system.mem_ctrls1.wrPerTurnAround::18          191978     77.61%     95.79% # Writes before turning the bus around for reads
system.mem_ctrls1.wrPerTurnAround::19            9148      3.70%     99.48% # Writes before turning the bus around for reads
system.mem_ctrls1.wrPerTurnAround::20            1122      0.45%     99.94% # Writes before turning the bus around for reads
system.mem_ctrls1.wrPerTurnAround::21             116      0.05%     99.99% # Writes before turning the bus around for reads
system.mem_ctrls1.wrPerTurnAround::22              23      0.01%     99.99% # Writes before turning the bus around for reads
system.mem_ctrls1.wrPerTurnAround::23               9      0.00%    100.00% # Writes before turning the bus around for reads
system.mem_ctrls1.wrPerTurnAround::24               3      0.00%    100.00% # Writes before turning the bus around for reads
system.mem_ctrls1.wrPerTurnAround::25               1      0.00%    100.00% # Writes before turning the bus around for reads
system.mem_ctrls1.wrPerTurnAround::26               1      0.00%    100.00% # Writes before turning the bus around for reads
system.mem_ctrls1.wrPerTurnAround::total       247356                       # Writes before turning the bus around for reads
system.mem_ctrls1.totQLat                236058357014                       # Total ticks spent queuing
system.mem_ctrls1.totMemAccLat           401901469514                       # Total ticks spent from burst creation until serviced by the DRAM
system.mem_ctrls1.totBusLat               44224830000                       # Total ticks spent in databus transfers
system.mem_ctrls1.avgQLat                    26688.44                       # Average queueing delay per DRAM burst
system.mem_ctrls1.avgBusLat                   5000.00                       # Average bus latency per DRAM burst
system.mem_ctrls1.avgMemAccLat               45438.44                       # Average memory access latency per DRAM burst
system.mem_ctrls1.avgRdBW                      148.37                       # Average DRAM read bandwidth in MiByte/s
system.mem_ctrls1.avgWrBW                       73.53                       # Average achieved write bandwidth in MiByte/s
system.mem_ctrls1.avgRdBWSys                   148.37                       # Average system read bandwidth in MiByte/s
system.mem_ctrls1.avgWrBWSys                    73.53                       # Average system write bandwidth in MiByte/s
system.mem_ctrls1.peakBW                     12800.00                       # Theoretical peak bandwidth in MiByte/s
system.mem_ctrls1.busUtil                        1.73                       # Data bus utilization in percentage
system.mem_ctrls1.busUtilRead                    1.16                       # Data bus utilization in percentage for reads
system.mem_ctrls1.busUtilWrite                   0.57                       # Data bus utilization in percentage for writes
system.mem_ctrls1.avgRdQLen                      1.03                       # Average read queue length when enqueuing
system.mem_ctrls1.avgWrQLen                     24.56                       # Average write queue length when enqueuing
system.mem_ctrls1.readRowHits                 2756800                       # Number of row buffer hits during reads
system.mem_ctrls1.writeRowHits                1185374                       # Number of row buffer hits during writes
system.mem_ctrls1.readRowHitRate                31.17                       # Row buffer hit rate for reads
system.mem_ctrls1.writeRowHitRate               27.04                       # Row buffer hit rate for writes
system.mem_ctrls1.avgGap                    288420.28                       # Average gap between requests
system.mem_ctrls1.pageHitRate                   29.80                       # Row buffer hit rate, read and write combined
system.mem_ctrls1_0.actEnergy             33139046220                       # Energy for activate commands per rank (pJ)
system.mem_ctrls1_0.preEnergy             17613809400                       # Energy for precharge commands per rank (pJ)
system.mem_ctrls1_0.readEnergy            31577106960                       # Energy for read commands per rank (pJ)
system.mem_ctrls1_0.writeEnergy           11444750820                       # Energy for write commands per rank (pJ)
system.mem_ctrls1_0.refreshEnergy        299832455520.000061                       # Energy for refresh commands per rank (pJ)
system.mem_ctrls1_0.actBackEnergy        234487559880                       # Energy for active background per rank (pJ)
system.mem_ctrls1_0.preBackEnergy          7802243520                       # Energy for precharge background per rank (pJ)
system.mem_ctrls1_0.actPowerDownEnergy   1286618708280                       # Energy for active power-down per rank (pJ)
system.mem_ctrls1_0.prePowerDownEnergy   147534949440                       # Energy for precharge power-down per rank (pJ)
system.mem_ctrls1_0.selfRefreshEnergy     22449179220                       # Energy for self refresh per rank (pJ)
system.mem_ctrls1_0.totalEnergy          2092527110310                       # Total energy per rank (pJ)
system.mem_ctrls1_0.averagePower           548.444206                       # Core power per rank (mW)
system.mem_ctrls1_0.totalIdleTime        3280781940412                       # Total Idle time Per DRAM Rank
system.mem_ctrls1_0.memoryStateTime::IDLE   4964812648                       # Time in different power states
system.mem_ctrls1_0.memoryStateTime::REF 126883548000                       # Time in different power states
system.mem_ctrls1_0.memoryStateTime::SREF  75043359341                       # Time in different power states
system.mem_ctrls1_0.memoryStateTime::PRE_PDN 384208398744                       # Time in different power states
system.mem_ctrls1_0.memoryStateTime::ACT 402756965345                       # Time in different power states
system.mem_ctrls1_0.memoryStateTime::ACT_PDN 2821530278353                       # Time in different power states
system.mem_ctrls1_1.actEnergy             33165457080                       # Energy for activate commands per rank (pJ)
system.mem_ctrls1_1.preEnergy             17627847105                       # Energy for precharge commands per rank (pJ)
system.mem_ctrls1_1.readEnergy            31575950280                       # Energy for read commands per rank (pJ)
system.mem_ctrls1_1.writeEnergy           11437395840                       # Energy for write commands per rank (pJ)
system.mem_ctrls1_1.refreshEnergy        299617331520.000061                       # Energy for refresh commands per rank (pJ)
system.mem_ctrls1_1.actBackEnergy        232614879030                       # Energy for active background per rank (pJ)
system.mem_ctrls1_1.preBackEnergy          7794912960                       # Energy for precharge background per rank (pJ)
system.mem_ctrls1_1.actPowerDownEnergy   1289455104660                       # Energy for active power-down per rank (pJ)
system.mem_ctrls1_1.prePowerDownEnergy   146474687040                       # Energy for precharge power-down per rank (pJ)
system.mem_ctrls1_1.selfRefreshEnergy     22452477825                       # Energy for self refresh per rank (pJ)
system.mem_ctrls1_1.totalEnergy          2092242462780                       # Total energy per rank (pJ)
system.mem_ctrls1_1.averagePower           548.369605                       # Core power per rank (mW)
system.mem_ctrls1_1.totalIdleTime        3284894486870                       # Total Idle time Per DRAM Rank
system.mem_ctrls1_1.memoryStateTime::IDLE   4903730025                       # Time in different power states
system.mem_ctrls1_1.memoryStateTime::REF 126790688000                       # Time in different power states
system.mem_ctrls1_1.memoryStateTime::SREF  75712025950                       # Time in different power states
system.mem_ctrls1_1.memoryStateTime::PRE_PDN 381436457302                       # Time in different power states
system.mem_ctrls1_1.memoryStateTime::ACT 398798457536                       # Time in different power states
system.mem_ctrls1_1.memoryStateTime::ACT_PDN 2827746003618                       # Time in different power states
system.pwrStateResidencyTicks::UNDEFINED 147292375679505                       # Cumulative time (in ticks) in various power states
system.cpu.branchPred.lookups                       0                       # Number of BP lookups
system.cpu.branchPred.condPredicted                 0                       # Number of conditional branches predicted
system.cpu.branchPred.condIncorrect                 0                       # Number of conditional branches incorrect
system.cpu.branchPred.BTBLookups                    0                       # Number of BTB lookups
system.cpu.branchPred.BTBHits                       0                       # Number of BTB hits
system.cpu.branchPred.BTBCorrect                    0                       # Number of correct BTB predictions (this stat may not work properly.
system.cpu.branchPred.BTBHitPct                   nan                       # BTB Hit Percentage
system.cpu.branchPred.usedRAS                       0                       # Number of times the RAS was used to get a target.
system.cpu.branchPred.RASInCorrect                  0                       # Number of incorrect RAS predictions.
system.cpu.branchPred.indirectLookups               0                       # Number of indirect predictor lookups.
system.cpu.branchPred.indirectHits                  0                       # Number of indirect target hits.
system.cpu.branchPred.indirectMisses                0                       # Number of indirect misses.
system.cpu.branchPredindirectMispredicted            0                       # Number of mispredicted indirect branches.
system.cpu_voltage_domain.voltage                   1                       # Voltage in Volts
system.cpu_clk_domain.clock                       333                       # Clock period in ticks
system.cpu.dtb.fetch_hits                           0                       # ITB hits
system.cpu.dtb.fetch_misses                         0                       # ITB misses
system.cpu.dtb.fetch_acv                            0                       # ITB acv
system.cpu.dtb.fetch_accesses                       0                       # ITB accesses
system.cpu.dtb.read_hits                           13                       # DTB read hits
system.cpu.dtb.read_misses                          0                       # DTB read misses
system.cpu.dtb.read_acv                             0                       # DTB read access violations
system.cpu.dtb.read_accesses                       13                       # DTB read accesses
system.cpu.dtb.write_hits                           0                       # DTB write hits
system.cpu.dtb.write_misses                         0                       # DTB write misses
system.cpu.dtb.write_acv                            0                       # DTB write access violations
system.cpu.dtb.write_accesses                       0                       # DTB write accesses
system.cpu.dtb.data_hits                           13                       # DTB hits
system.cpu.dtb.data_misses                          0                       # DTB misses
system.cpu.dtb.data_acv                             0                       # DTB access violations
system.cpu.dtb.data_accesses                       13                       # DTB accesses
system.cpu.itb.fetch_hits                           4                       # ITB hits
system.cpu.itb.fetch_misses                         0                       # ITB misses
system.cpu.itb.fetch_acv                            0                       # ITB acv
system.cpu.itb.fetch_accesses                       4                       # ITB accesses
system.cpu.itb.read_hits                            0                       # DTB read hits
system.cpu.itb.read_misses                          0                       # DTB read misses
system.cpu.itb.read_acv                             0                       # DTB read access violations
system.cpu.itb.read_accesses                        0                       # DTB read accesses
system.cpu.itb.write_hits                           0                       # DTB write hits
system.cpu.itb.write_misses                         0                       # DTB write misses
system.cpu.itb.write_acv                            0                       # DTB write access violations
system.cpu.itb.write_accesses                       0                       # DTB write accesses
system.cpu.itb.data_hits                            0                       # DTB hits
system.cpu.itb.data_misses                          0                       # DTB misses
system.cpu.itb.data_acv                             0                       # DTB access violations
system.cpu.itb.data_accesses                        0                       # DTB accesses
system.cpu.workload.num_syscalls                    0                       # Number of system calls
system.cpu.pwrStateResidencyTicks::ON    3815387362431                       # Cumulative time (in ticks) in various power states
system.cpu.numCycles                              985                       # number of cpu cycles simulated
system.cpu.numWorkItemsStarted                      0                       # number of work items this cpu started
system.cpu.numWorkItemsCompleted                    0                       # number of work items this cpu completed
system.cpu.fetch.icacheStallCycles                 51                       # Number of cycles fetch is stalled on an Icache miss
system.cpu.fetch.Insts                             23                       # Number of instructions fetch has processed
system.cpu.fetch.Cycles                             3                       # Number of cycles fetch has run and was not squashing or blocked
system.cpu.fetch.SquashCycles                       3                       # Number of cycles fetch has spent squashing
system.cpu.fetch.PendingDrainCycles                 7                       # Number of cycles fetch has spent waiting on pipes to drain
system.cpu.fetch.CacheLines                         4                       # Number of cache lines fetched
system.cpu.fetch.IcacheSquashes                     2                       # Number of outstanding Icache misses that were squashed
system.cpu.fetch.rateDist::samples                 62                       # Number of instructions fetched each cycle (Total)
system.cpu.fetch.rateDist::mean              0.370968                       # Number of instructions fetched each cycle (Total)
system.cpu.fetch.rateDist::stdev             1.661856                       # Number of instructions fetched each cycle (Total)
[...]
system.switch_cpus_1.iq.fu_busy_rate         0.055184                       # FU busy rate (busy events/executed inst)
system.switch_cpus_1.iq.int_inst_queue_reads    821774611                       # Number of integer instruction queue reads
system.switch_cpus_1.iq.int_inst_queue_writes     79841776                       # Number of integer instruction queue writes
system.switch_cpus_1.iq.int_inst_queue_wakeup_accesses     72917213                       # Number of integer instruction queue wakeup accesses
system.switch_cpus_1.iq.fp_inst_queue_reads    313162156                       # Number of floating instruction queue reads
system.switch_cpus_1.iq.fp_inst_queue_writes    167481174                       # Number of floating instruction queue writes
system.switch_cpus_1.iq.fp_inst_queue_wakeup_accesses    142530213                       # Number of floating instruction queue wakeup accesses
system.switch_cpus_1.iq.int_alu_accesses     81307993                       # Number of integer alu accesses
system.switch_cpus_1.iq.fp_alu_accesses     160092964                       # Number of floating point alu accesses
system.switch_cpus_1.iew.lsq.thread0.forwLoads       563429                       # Number of loads that had data forwarded from stores
system.switch_cpus_1.iew.lsq.thread0.invAddrLoads            0                       # Number of loads ignored due to an invalid address
system.switch_cpus_1.iew.lsq.thread0.squashedLoads      9698879                       # Number of loads squashed
system.switch_cpus_1.iew.lsq.thread0.ignoredResponses           32                       # Number of memory responses ignored because the instruction is squashed
system.switch_cpus_1.iew.lsq.thread0.memOrderViolation          535                       # Number of memory ordering violations
system.switch_cpus_1.iew.lsq.thread0.squashedStores      1086767                       # Number of stores squashed
system.switch_cpus_1.iew.lsq.thread0.invAddrSwpfs            0                       # Number of software prefetches ignored due to an invalid address
system.switch_cpus_1.iew.lsq.thread0.blockedLoads            0                       # Number of blocked loads due to partial load-store forwarding
system.switch_cpus_1.iew.lsq.thread0.rescheduledLoads            0                       # Number of loads that were rescheduled
system.switch_cpus_1.iew.lsq.thread0.cacheBlocked     11932936                       # Number of times an access to memory failed due to the cache being blocked
system.switch_cpus_1.iew.iewIdleCycles              0                       # Number of cycles IEW is idle
system.switch_cpus_1.iew.iewSquashCycles       306914                       # Number of cycles IEW is squashing
system.switch_cpus_1.iew.iewBlockCycles      17370269                       # Number of cycles IEW is blocking
system.switch_cpus_1.iew.iewUnblockCycles    206385509                       # Number of cycles IEW is unblocking
system.switch_cpus_1.iew.iewDispatchedInsts    223847284                       # Number of instructions dispatched to IQ
system.switch_cpus_1.iew.iewDispSquashedInsts         1857                       # Number of squashed instructions skipped by dispatch
system.switch_cpus_1.iew.iewDispLoadInsts     93114487                       # Number of dispatched load instructions
system.switch_cpus_1.iew.iewDispStoreInsts     11679214                       # Number of dispatched store instructions
system.switch_cpus_1.iew.iewDispNonSpecInsts            0                       # Number of dispatched non-speculative instructions
system.switch_cpus_1.iew.iewIQFullEvents        22080                       # Number of times the IQ has become full, causing a stall
system.switch_cpus_1.iew.iewLSQFullEvents    206336095                       # Number of times the LSQ has become full, causing a stall
system.switch_cpus_1.iew.memOrderViolationEvents          535                       # Number of memory order violations
system.switch_cpus_1.iew.predictedTakenIncorrect         3860                       # Number of branches that were predicted taken incorrectly
system.switch_cpus_1.iew.predictedNotTakenIncorrect          455                       # Number of branches that were predicted not taken incorrectly
system.switch_cpus_1.iew.branchMispredicts         4315                       # Number of branch mispredicts detected at execute
system.switch_cpus_1.iew.iewExecutedInsts    228708338                       # Number of executed instructions
system.switch_cpus_1.iew.iewExecLoadInsts    104302954                       # Number of load instructions executed
system.switch_cpus_1.iew.iewExecSquashedInsts        67851                       # Number of squashed instructions skipped in execute
system.switch_cpus_1.iew.exec_swp                   0                       # number of swp insts executed
system.switch_cpus_1.iew.exec_nop              186043                       # number of nop insts executed
system.switch_cpus_1.iew.exec_refs          115023710                       # number of memory reference insts executed
system.switch_cpus_1.iew.exec_branches        1994205                       # Number of branches executed
system.switch_cpus_1.iew.exec_stores         10720756                       # Number of stores executed
system.switch_cpus_1.iew.exec_rate           0.344187                       # Inst execution rate
system.switch_cpus_1.iew.wb_sent            216536091                       # cumulative count of insts sent to commit
system.switch_cpus_1.iew.wb_count           215447426                       # cumulative count of insts written-back
system.switch_cpus_1.iew.wb_producers       142941624                       # num instructions producing a value
system.switch_cpus_1.iew.wb_consumers       149820206                       # num instructions consuming a value
system.switch_cpus_1.iew.wb_rate             0.324230                       # insts written-back per cycle
system.switch_cpus_1.iew.wb_fanout           0.954088                       # average fanout of values written-back
system.switch_cpus_1.commit.commitSquashedInsts     22578175                       # The number of squashed insts skipped by commit
system.switch_cpus_1.commit.branchMispredicts         4268                       # The number of times a branch was mispredicted
system.switch_cpus_1.commit.committed_per_cycle::samples    661455592                       # Number of insts commited each cycle
system.switch_cpus_1.commit.committed_per_cycle::mean     0.302644                       # Number of insts commited each cycle
system.switch_cpus_1.commit.committed_per_cycle::stdev     1.387952                       # Number of insts commited each cycle
system.switch_cpus_1.commit.committed_per_cycle::underflows            0      0.00%      0.00% # Number of insts commited each cycle
system.switch_cpus_1.commit.committed_per_cycle::0    618277773     93.47%     93.47% # Number of insts commited each cycle
system.switch_cpus_1.commit.committed_per_cycle::1     12554244      1.90%     95.37% # Number of insts commited each cycle
system.switch_cpus_1.commit.committed_per_cycle::2      4321564      0.65%     96.02% # Number of insts commited each cycle
system.switch_cpus_1.commit.committed_per_cycle::3      2634067      0.40%     96.42% # Number of insts commited each cycle
system.switch_cpus_1.commit.committed_per_cycle::4      2274835      0.34%     96.77% # Number of insts commited each cycle
system.switch_cpus_1.commit.committed_per_cycle::5      1621906      0.25%     97.01% # Number of insts commited each cycle
system.switch_cpus_1.commit.committed_per_cycle::6      1679538      0.25%     97.26% # Number of insts commited each cycle
system.switch_cpus_1.commit.committed_per_cycle::7       933476      0.14%     97.41% # Number of insts commited each cycle
system.switch_cpus_1.commit.committed_per_cycle::8     17158189      2.59%    100.00% # Number of insts commited each cycle
system.switch_cpus_1.commit.committed_per_cycle::overflows            0      0.00%    100.00% # Number of insts commited each cycle
system.switch_cpus_1.commit.committed_per_cycle::min_value            0                       # Number of insts commited each cycle
system.switch_cpus_1.commit.committed_per_cycle::max_value            8                       # Number of insts commited each cycle
system.switch_cpus_1.commit.committed_per_cycle::total    661455592                       # Number of insts commited each cycle
system.switch_cpus_1.commit.committedInsts    200185515                       # Number of instructions committed
system.switch_cpus_1.commit.committedOps    200185515                       # Number of ops (including micro ops) committed
system.switch_cpus_1.commit.swp_count               0                       # Number of s/w prefetches committed
system.switch_cpus_1.commit.refs             94008030                       # Number of memory references committed
system.switch_cpus_1.commit.loads            83415586                       # Number of loads committed
system.switch_cpus_1.commit.membars                 0                       # Number of memory barriers committed
system.switch_cpus_1.commit.branches          1780705                       # Number of branches committed
system.switch_cpus_1.commit.fp_insts        133556284                       # Number of committed floating point instructions.
system.switch_cpus_1.commit.int_insts       133992906                       # Number of committed integer instructions.
system.switch_cpus_1.commit.function_calls            0                       # Number of function calls committed.
system.switch_cpus_1.commit.op_class_0::No_OpClass       185513      0.09%      0.09% # Class of committed instruction
system.switch_cpus_1.commit.op_class_0::IntAlu     39964775     19.96%     20.06% # Class of committed instruction
system.switch_cpus_1.commit.op_class_0::IntMult        96303      0.05%     20.10% # Class of committed instruction
system.switch_cpus_1.commit.op_class_0::IntDiv            0      0.00%     20.10% # Class of committed instruction
system.switch_cpus_1.commit.op_class_0::FloatAdd     26372358     13.17%     33.28% # Class of committed instruction
system.switch_cpus_1.commit.op_class_0::FloatCmp            0      0.00%     33.28% # Class of committed instruction
system.switch_cpus_1.commit.op_class_0::FloatCvt            0      0.00%     33.28% # Class of committed instruction
system.switch_cpus_1.commit.op_class_0::FloatMult     39558536     19.76%     53.04% # Class of committed instruction
system.switch_cpus_1.commit.op_class_0::FloatMultAcc            0      0.00%     53.04% # Class of committed instruction
system.switch_cpus_1.commit.op_class_0::FloatDiv            0      0.00%     53.04% # Class of committed instruction
system.switch_cpus_1.commit.op_class_0::FloatMisc            0      0.00%     53.04% # Class of committed instruction
system.switch_cpus_1.commit.op_class_0::FloatSqrt            0      0.00%     53.04% # Class of committed instruction
system.switch_cpus_1.commit.op_class_0::SimdAdd            0      0.00%     53.04% # Class of committed instruction
system.switch_cpus_1.commit.op_class_0::SimdAddAcc            0      0.00%     53.04% # Class of committed instruction
system.switch_cpus_1.commit.op_class_0::SimdAlu            0      0.00%     53.04% # Class of committed instruction
system.switch_cpus_1.commit.op_class_0::SimdCmp            0      0.00%     53.04% # Class of committed instruction
system.switch_cpus_1.commit.op_class_0::SimdCvt            0      0.00%     53.04% # Class of committed instruction
system.switch_cpus_1.commit.op_class_0::SimdMisc            0      0.00%     53.04% # Class of committed instruction
system.switch_cpus_1.commit.op_class_0::SimdMult            0      0.00%     53.04% # Class of committed instruction
system.switch_cpus_1.commit.op_class_0::SimdMultAcc            0      0.00%     53.04% # Class of committed instruction
system.switch_cpus_1.commit.op_class_0::SimdShift            0      0.00%     53.04% # Class of committed instruction
system.switch_cpus_1.commit.op_class_0::SimdShiftAcc            0      0.00%     53.04% # Class of committed instruction
system.switch_cpus_1.commit.op_class_0::SimdSqrt            0      0.00%     53.04% # Class of committed instruction
system.switch_cpus_1.commit.op_class_0::SimdFloatAdd            0      0.00%     53.04% # Class of committed instruction
system.switch_cpus_1.commit.op_class_0::SimdFloatAlu            0      0.00%     53.04% # Class of committed instruction
system.switch_cpus_1.commit.op_class_0::SimdFloatCmp            0      0.00%     53.04% # Class of committed instruction
system.switch_cpus_1.commit.op_class_0::SimdFloatCvt            0      0.00%     53.04% # Class of committed instruction
system.switch_cpus_1.commit.op_class_0::SimdFloatDiv            0      0.00%     53.04% # Class of committed instruction
system.switch_cpus_1.commit.op_class_0::SimdFloatMisc            0      0.00%     53.04% # Class of committed instruction
system.switch_cpus_1.commit.op_class_0::SimdFloatMult            0      0.00%     53.04% # Class of committed instruction
system.switch_cpus_1.commit.op_class_0::SimdFloatMultAcc            0      0.00%     53.04% # Class of committed instruction
system.switch_cpus_1.commit.op_class_0::SimdFloatSqrt            0      0.00%     53.04% # Class of committed instruction
system.switch_cpus_1.commit.op_class_0::MemRead     24580982     12.28%     65.32% # Class of committed instruction
system.switch_cpus_1.commit.op_class_0::MemWrite      1801658      0.90%     66.22% # Class of committed instruction
system.switch_cpus_1.commit.op_class_0::FloatMemRead     58834604     29.39%     95.61% # Class of committed instruction
system.switch_cpus_1.commit.op_class_0::FloatMemWrite      8790786      4.39%    100.00% # Class of committed instruction
system.switch_cpus_1.commit.op_class_0::IprAccess            0      0.00%    100.00% # Class of committed instruction
system.switch_cpus_1.commit.op_class_0::InstPrefetch            0      0.00%    100.00% # Class of committed instruction
system.switch_cpus_1.commit.op_class_0::total    200185515                       # Class of committed instruction
system.switch_cpus_1.commit.bw_lim_events     17158189                       # number cycles where commit BW limit reached
system.switch_cpus_1.rob.rob_reads          863132220                       # The number of ROB reads
system.switch_cpus_1.rob.rob_writes         448485737                       # The number of ROB writes
system.switch_cpus_1.timesIdled                   366                       # Number of times that the entire CPU went into an idle state and unscheduled itself
system.switch_cpus_1.idleCycles                 75432                       # Total number of cycles that the CPU has spent unscheduled due to idling
system.switch_cpus_1.committedInsts         200000002                       # Number of Instructions Simulated
system.switch_cpus_1.committedOps           200000002                       # Number of Ops (including micro ops) Simulated
system.switch_cpus_1.cpi                     3.322447                       # CPI: Cycles Per Instruction
system.switch_cpus_1.cpi_total               3.322447                       # CPI: Total CPI of All Threads
system.switch_cpus_1.ipc                     0.300983                       # IPC: Instructions Per Cycle
system.switch_cpus_1.ipc_total               0.300983                       # IPC: Total IPC of All Threads
system.switch_cpus_1.int_regfile_reads      181597825                       # number of integer regfile reads
system.switch_cpus_1.int_regfile_writes      69121743                       # number of integer regfile writes
system.switch_cpus_1.fp_regfile_reads       147037079                       # number of floating regfile reads
system.switch_cpus_1.fp_regfile_writes      133639192                       # number of floating regfile writes
system.tol3bus.snoop_filter.tot_requests     39183941                       # Total number of requests made to the snoop filter.
system.tol3bus.snoop_filter.hit_single_requests     19589643                       # Number of requests hitting in the snoop filter with a single holder of the requested data.
system.tol3bus.snoop_filter.hit_multi_requests            0                       # Number of requests hitting in the snoop filter with multiple (>1) holders of the requested data.
system.tol3bus.snoop_filter.tot_snoops        1249694                       # Total number of snoops made to the snoop filter.
system.tol3bus.snoop_filter.hit_single_snoops      1249694                       # Number of snoops hitting in the snoop filter with a single holder of the requested data.
system.tol3bus.snoop_filter.hit_multi_snoops            0                       # Number of snoops hitting in the snoop filter with multiple (>1) holders of the requested data.
system.tol3bus.pwrStateResidencyTicks::UNDEFINED 147292375679505                       # Cumulative time (in ticks) in various power states
system.tol3bus.trans_dist::ReadResp          19456446                       # Transaction distribution
system.tol3bus.trans_dist::WritebackDirty     17801993                       # Transaction distribution
system.tol3bus.trans_dist::CleanEvict        20142607                       # Transaction distribution
system.tol3bus.trans_dist::UpgradeReq               6                       # Transaction distribution
system.tol3bus.trans_dist::UpgradeResp              6                       # Transaction distribution
system.tol3bus.trans_dist::ReadExReq           137852                       # Transaction distribution
system.tol3bus.trans_dist::ReadExResp          137852                       # Transaction distribution
system.tol3bus.trans_dist::ReadSharedReq     19456446                       # Transaction distribution
system.tol3bus.pkt_count_system.cpu.l2.mem_side::system.l3.cpu_side     58778245                       # Packet count per connected master and slave (bytes)
system.tol3bus.pkt_size_system.cpu.l2.mem_side::system.l3.cpu_side   1832262272                       # Cumulative packet size per connected master and slave (bytes)
system.tol3bus.snoops                        18354963                       # Total snoops (count)
system.tol3bus.snoopTraffic                 561100352                       # Total snoop traffic (bytes)
system.tol3bus.snoop_fanout::samples         37949267                       # Request fanout histogram
system.tol3bus.snoop_fanout::mean            0.032931                       # Request fanout histogram
system.tol3bus.snoop_fanout::stdev           0.178455                       # Request fanout histogram
system.tol3bus.snoop_fanout::underflows             0      0.00%      0.00% # Request fanout histogram
system.tol3bus.snoop_fanout::0               36699573     96.71%     96.71% # Request fanout histogram
system.tol3bus.snoop_fanout::1                1249694      3.29%    100.00% # Request fanout histogram
system.tol3bus.snoop_fanout::overflows              0      0.00%    100.00% # Request fanout histogram
system.tol3bus.snoop_fanout::min_value              0                       # Request fanout histogram
system.tol3bus.snoop_fanout::max_value              1                       # Request fanout histogram
system.tol3bus.snoop_fanout::total           37949267                       # Request fanout histogram
system.tol3bus.reqLayer0.occupancy        16056840753                       # Layer occupancy (ticks)
system.tol3bus.reqLayer0.utilization              0.4                       # Layer utilization (%)
system.tol3bus.respLayer0.occupancy       13049804466                       # Layer occupancy (ticks)
system.tol3bus.respLayer0.utilization             0.3                       # Layer utilization (%)

---------- End Simulation Statistics   ----------
