
---------- Begin Simulation Statistics ----------
sim_seconds                                  4.154132                       # Number of seconds simulated
sim_ticks                                4154132460915                       # Number of ticks simulated
final_tick                               74184105042261                       # Number of ticks from beginning of simulation (restored from checkpoints and never reset)
sim_freq                                 1000000000000                       # Frequency of simulated ticks
host_inst_rate                                 160008                       # Simulator instruction rate (inst/s)
host_op_rate                                   160008                       # Simulator op (including micro ops) rate (op/s)
host_tick_rate                              443130581                       # Simulator tick rate (ticks/s)
host_mem_usage                                2504364                       # Number of bytes of host memory used
host_seconds                                  9374.51                       # Real time elapsed on the host
sim_insts                                  1500000007                       # Number of instructions simulated
sim_ops                                    1500000007                       # Number of ops (including micro ops) simulated
system.voltage_domain.voltage                       1                       # Voltage in Volts
system.clk_domain.clock                          1000                       # Clock period in ticks
system.mem_ctrls0.pwrStateResidencyTicks::UNDEFINED 74184105042261                       # Cumulative time (in ticks) in various power states
system.mem_ctrls0.bytes_read::cpu.inst             64                       # Number of bytes read from this memory
system.mem_ctrls0.bytes_read::cpu.data            128                       # Number of bytes read from this memory
system.mem_ctrls0.bytes_read::switch_cpus.inst       150400                       # Number of bytes read from this memory
system.mem_ctrls0.bytes_read::switch_cpus.data    408031552                       # Number of bytes read from this memory
system.mem_ctrls0.bytes_read::switch_cpus_1.inst        96320                       # Number of bytes read from this memory
system.mem_ctrls0.bytes_read::switch_cpus_1.data    211417472                       # Number of bytes read from this memory
system.mem_ctrls0.bytes_read::total         619695936                       # Number of bytes read from this memory
system.mem_ctrls0.bytes_inst_read::cpu.inst           64                       # Number of instructions bytes read from this memory
system.mem_ctrls0.bytes_inst_read::switch_cpus.inst       150400                       # Number of instructions bytes read from this memory
system.mem_ctrls0.bytes_inst_read::switch_cpus_1.inst        96320                       # Number of instructions bytes read from this memory
system.mem_ctrls0.bytes_inst_read::total       246784                       # Number of instructions bytes read from this memory
system.mem_ctrls0.bytes_written::writebacks    202858432                       # Number of bytes written to this memory
system.mem_ctrls0.bytes_written::total      202858432                       # Number of bytes written to this memory
system.mem_ctrls0.num_reads::cpu.inst               1                       # Number of read requests responded to by this memory
system.mem_ctrls0.num_reads::cpu.data               2                       # Number of read requests responded to by this memory
system.mem_ctrls0.num_reads::switch_cpus.inst         2350                       # Number of read requests responded to by this memory
system.mem_ctrls0.num_reads::switch_cpus.data      6375493                       # Number of read requests responded to by this memory
system.mem_ctrls0.num_reads::switch_cpus_1.inst         1505                       # Number of read requests responded to by this memory
system.mem_ctrls0.num_reads::switch_cpus_1.data      3303398                       # Number of read requests responded to by this memory
system.mem_ctrls0.num_reads::total            9682749                       # Number of read requests responded to by this memory
system.mem_ctrls0.num_writes::writebacks      3169663                       # Number of write requests responded to by this memory
system.mem_ctrls0.num_writes::total           3169663                       # Number of write requests responded to by this memory
system.mem_ctrls0.bw_read::cpu.inst                15                       # Total read bandwidth from this memory (bytes/s)
system.mem_ctrls0.bw_read::cpu.data                31                       # Total read bandwidth from this memory (bytes/s)
system.mem_ctrls0.bw_read::switch_cpus.inst        36205                       # Total read bandwidth from this memory (bytes/s)
system.mem_ctrls0.bw_read::switch_cpus.data     98223048                       # Total read bandwidth from this memory (bytes/s)
system.mem_ctrls0.bw_read::switch_cpus_1.inst        23187                       # Total read bandwidth from this memory (bytes/s)
system.mem_ctrls0.bw_read::switch_cpus_1.data     50893291                       # Total read bandwidth from this memory (bytes/s)
system.mem_ctrls0.bw_read::total            149175777                       # Total read bandwidth from this memory (bytes/s)
system.mem_ctrls0.bw_inst_read::cpu.inst           15                       # Instruction read bandwidth from this memory (bytes/s)
system.mem_ctrls0.bw_inst_read::switch_cpus.inst        36205                       # Instruction read bandwidth from this memory (bytes/s)
system.mem_ctrls0.bw_inst_read::switch_cpus_1.inst        23187                       # Instruction read bandwidth from this memory (bytes/s)
system.mem_ctrls0.bw_inst_read::total           59407                       # Instruction read bandwidth from this memory (bytes/s)
system.mem_ctrls0.bw_write::writebacks       48832923                       # Write bandwidth from this memory (bytes/s)
system.mem_ctrls0.bw_write::total            48832923                       # Write bandwidth from this memory (bytes/s)
system.mem_ctrls0.bw_total::writebacks       48832923                       # Total bandwidth to/from this memory (bytes/s)
system.mem_ctrls0.bw_total::cpu.inst               15                       # Total bandwidth to/from this memory (bytes/s)
system.mem_ctrls0.bw_total::cpu.data               31                       # Total bandwidth to/from this memory (bytes/s)
system.mem_ctrls0.bw_total::switch_cpus.inst        36205                       # Total bandwidth to/from this memory (bytes/s)
system.mem_ctrls0.bw_total::switch_cpus.data     98223048                       # Total bandwidth to/from this memory (bytes/s)
system.mem_ctrls0.bw_total::switch_cpus_1.inst        23187                       # Total bandwidth to/from this memory (bytes/s)
system.mem_ctrls0.bw_total::switch_cpus_1.data     50893291                       # Total bandwidth to/from this memory (bytes/s)
system.mem_ctrls0.bw_total::total           198008700                       # Total bandwidth to/from this memory (bytes/s)
system.mem_ctrls0.readReqs                    9682749                       # Number of read requests accepted
system.mem_ctrls0.writeReqs                   3169663                       # Number of write requests accepted
system.mem_ctrls0.readBursts                  9682749                       # Number of DRAM read bursts, including those serviced by the write queue
system.mem_ctrls0.writeBursts                 3169663                       # Number of DRAM write bursts, including those merged in the write queue
system.mem_ctrls0.bytesReadDRAM             619275456                       # Total number of bytes read from DRAM
system.mem_ctrls0.bytesReadWrQ                 420480                       # Total number of bytes read from write queue
system.mem_ctrls0.bytesWritten              202856704                       # Total number of bytes written to DRAM
system.mem_ctrls0.bytesReadSys              619695936                       # Total read bytes from the system interface side
system.mem_ctrls0.bytesWrittenSys           202858432                       # Total written bytes from the system interface side
system.mem_ctrls0.servicedByWrQ                  6570                       # Number of DRAM read bursts serviced by the write queue
system.mem_ctrls0.mergedWrBursts                    0                       # Number of DRAM write bursts merged with an existing one
system.mem_ctrls0.neitherReadNorWriteReqs            0                       # Number of requests that are neither read nor write
system.mem_ctrls0.perBankRdBursts::0           647385                       # Per bank write bursts
system.mem_ctrls0.perBankRdBursts::1           611486                       # Per bank write bursts
system.mem_ctrls0.perBankRdBursts::2           603578                       # Per bank write bursts
system.mem_ctrls0.perBankRdBursts::3           608270                       # Per bank write bursts
system.mem_ctrls0.perBankRdBursts::4           605235                       # Per bank write bursts
system.mem_ctrls0.perBankRdBursts::5           619156                       # Per bank write bursts
system.mem_ctrls0.perBankRdBursts::6           585761                       # Per bank write bursts
system.mem_ctrls0.perBankRdBursts::7           599842                       # Per bank write bursts
system.mem_ctrls0.perBankRdBursts::8           611816                       # Per bank write bursts
system.mem_ctrls0.perBankRdBursts::9           601194                       # Per bank write bursts
system.mem_ctrls0.perBankRdBursts::10          590721                       # Per bank write bursts
system.mem_ctrls0.perBankRdBursts::11          605933                       # Per bank write bursts
system.mem_ctrls0.perBankRdBursts::12          591549                       # Per bank write bursts
system.mem_ctrls0.perBankRdBursts::13          589283                       # Per bank write bursts
system.mem_ctrls0.perBankRdBursts::14          596123                       # Per bank write bursts
system.mem_ctrls0.perBankRdBursts::15          608847                       # Per bank write bursts
system.mem_ctrls0.perBankWrBursts::0           212147                       # Per bank write bursts
system.mem_ctrls0.perBankWrBursts::1           195477                       # Per bank write bursts
system.mem_ctrls0.perBankWrBursts::2           199837                       # Per bank write bursts
system.mem_ctrls0.perBankWrBursts::3           202197                       # Per bank write bursts
system.mem_ctrls0.perBankWrBursts::4           198926                       # Per bank write bursts
system.mem_ctrls0.perBankWrBursts::5           200511                       # Per bank write bursts
system.mem_ctrls0.perBankWrBursts::6           190836                       # Per bank write bursts
system.mem_ctrls0.perBankWrBursts::7           194353                       # Per bank write bursts
system.mem_ctrls0.perBankWrBursts::8           195986                       # Per bank write bursts
system.mem_ctrls0.perBankWrBursts::9           192956                       # Per bank write bursts
system.mem_ctrls0.perBankWrBursts::10          191524                       # Per bank write bursts
system.mem_ctrls0.perBankWrBursts::11          191947                       # Per bank write bursts
system.mem_ctrls0.perBankWrBursts::12          190977                       # Per bank write bursts
system.mem_ctrls0.perBankWrBursts::13          195414                       # Per bank write bursts
system.mem_ctrls0.perBankWrBursts::14          205603                       # Per bank write bursts
system.mem_ctrls0.perBankWrBursts::15          210945                       # Per bank write bursts
system.mem_ctrls0.numRdRetry                        0                       # Number of times read queue was full causing retry
system.mem_ctrls0.numWrRetry                        0                       # Number of times write queue was full causing retry
system.mem_ctrls0.totGap                 4154131780496                       # Total gap between requests
system.mem_ctrls0.readPktSize::0                    0                       # Read request sizes (log2)
system.mem_ctrls0.readPktSize::1                    0                       # Read request sizes (log2)
system.mem_ctrls0.readPktSize::2                    0                       # Read request sizes (log2)
system.mem_ctrls0.readPktSize::3                    0                       # Read request sizes (log2)
system.mem_ctrls0.readPktSize::4                    0                       # Read request sizes (log2)
system.mem_ctrls0.readPktSize::5                    0                       # Read request sizes (log2)
system.mem_ctrls0.readPktSize::6              9682749                       # Read request sizes (log2)
system.mem_ctrls0.writePktSize::0                   0                       # Write request sizes (log2)
system.mem_ctrls0.writePktSize::1                   0                       # Write request sizes (log2)
system.mem_ctrls0.writePktSize::2                   0                       # Write request sizes (log2)
system.mem_ctrls0.writePktSize::3                   0                       # Write request sizes (log2)
system.mem_ctrls0.writePktSize::4                   0                       # Write request sizes (log2)
system.mem_ctrls0.writePktSize::5                   0                       # Write request sizes (log2)
system.mem_ctrls0.writePktSize::6             3169663                       # Write request sizes (log2)
system.mem_ctrls0.rdQLenPdf::0                8794785                       # What read queue length does an incoming req see
system.mem_ctrls0.rdQLenPdf::1                 751954                       # What read queue length does an incoming req see
system.mem_ctrls0.rdQLenPdf::2                 120311                       # What read queue length does an incoming req see
system.mem_ctrls0.rdQLenPdf::3                   9126                       # What read queue length does an incoming req see
system.mem_ctrls0.rdQLenPdf::4                      3                       # What read queue length does an incoming req see
system.mem_ctrls0.rdQLenPdf::5                      0                       # What read queue length does an incoming req see
system.mem_ctrls0.rdQLenPdf::6                      0                       # What read queue length does an incoming req see
system.mem_ctrls0.rdQLenPdf::7                      0                       # What read queue length does an incoming req see
system.mem_ctrls0.rdQLenPdf::8                      0                       # What read queue length does an incoming req see
system.mem_ctrls0.rdQLenPdf::9                      0                       # What read queue length does an incoming req see
system.mem_ctrls0.rdQLenPdf::10                     0                       # What read queue length does an incoming req see
system.mem_ctrls0.rdQLenPdf::11                     0                       # What read queue length does an incoming req see
system.mem_ctrls0.rdQLenPdf::12                     0                       # What read queue length does an incoming req see
system.mem_ctrls0.rdQLenPdf::13                     0                       # What read queue length does an incoming req see
system.mem_ctrls0.rdQLenPdf::14                     0                       # What read queue length does an incoming req see
system.mem_ctrls0.rdQLenPdf::15                     0                       # What read queue length does an incoming req see
system.mem_ctrls0.rdQLenPdf::16                     0                       # What read queue length does an incoming req see
system.mem_ctrls0.rdQLenPdf::17                     0                       # What read queue length does an incoming req see
system.mem_ctrls0.rdQLenPdf::18                     0                       # What read queue length does an incoming req see
system.mem_ctrls0.rdQLenPdf::19                     0                       # What read queue length does an incoming req see
system.mem_ctrls0.rdQLenPdf::20                     0                       # What read queue length does an incoming req see
system.mem_ctrls0.rdQLenPdf::21                     0                       # What read queue length does an incoming req see
system.mem_ctrls0.rdQLenPdf::22                     0                       # What read queue length does an incoming req see
system.mem_ctrls0.rdQLenPdf::23                     0                       # What read queue length does an incoming req see
system.mem_ctrls0.rdQLenPdf::24                     0                       # What read queue length does an incoming req see
system.mem_ctrls0.rdQLenPdf::25                     0                       # What read queue length does an incoming req see
system.mem_ctrls0.rdQLenPdf::26                     0                       # What read queue length does an incoming req see
system.mem_ctrls0.rdQLenPdf::27                     0                       # What read queue length does an incoming req see
system.mem_ctrls0.rdQLenPdf::28                     0                       # What read queue length does an incoming req see
system.mem_ctrls0.rdQLenPdf::29                     0                       # What read queue length does an incoming req see
system.mem_ctrls0.rdQLenPdf::30                     0                       # What read queue length does an incoming req see
system.mem_ctrls0.rdQLenPdf::31                     0                       # What read queue length does an incoming req see
system.mem_ctrls0.wrQLenPdf::0                      2                       # What write queue length does an incoming req see
system.mem_ctrls0.wrQLenPdf::1                      2                       # What write queue length does an incoming req see
system.mem_ctrls0.wrQLenPdf::2                      2                       # What write queue length does an incoming req see
system.mem_ctrls0.wrQLenPdf::3                      2                       # What write queue length does an incoming req see
system.mem_ctrls0.wrQLenPdf::4                      2                       # What write queue length does an incoming req see
system.mem_ctrls0.wrQLenPdf::5                      2                       # What write queue length does an incoming req see
system.mem_ctrls0.wrQLenPdf::6                      2                       # What write queue length does an incoming req see
system.mem_ctrls0.wrQLenPdf::7                      2                       # What write queue length does an incoming req see
system.mem_ctrls0.wrQLenPdf::8                      2                       # What write queue length does an incoming req see
system.mem_ctrls0.wrQLenPdf::9                      2                       # What write queue length does an incoming req see
system.mem_ctrls0.wrQLenPdf::10                     2                       # What write queue length does an incoming req see
system.mem_ctrls0.wrQLenPdf::11                     2                       # What write queue length does an incoming req see
system.mem_ctrls0.wrQLenPdf::12                     2                       # What write queue length does an incoming req see
system.mem_ctrls0.wrQLenPdf::13                     2                       # What write queue length does an incoming req see
system.mem_ctrls0.wrQLenPdf::14                     2                       # What write queue length does an incoming req see
system.mem_ctrls0.wrQLenPdf::15                133552                       # What write queue length does an incoming req see
system.mem_ctrls0.wrQLenPdf::16                140146                       # What write queue length does an incoming req see
system.mem_ctrls0.wrQLenPdf::17                175702                       # What write queue length does an incoming req see
system.mem_ctrls0.wrQLenPdf::18                180338                       # What write queue length does an incoming req see
system.mem_ctrls0.wrQLenPdf::19                180980                       # What write queue length does an incoming req see
system.mem_ctrls0.wrQLenPdf::20                181146                       # What write queue length does an incoming req see
system.mem_ctrls0.wrQLenPdf::21                181307                       # What write queue length does an incoming req see
system.mem_ctrls0.wrQLenPdf::22                182098                       # What write queue length does an incoming req see
system.mem_ctrls0.wrQLenPdf::23                182889                       # What write queue length does an incoming req see
system.mem_ctrls0.wrQLenPdf::24                181637                       # What write queue length does an incoming req see
system.mem_ctrls0.wrQLenPdf::25                181214                       # What write queue length does an incoming req see
system.mem_ctrls0.wrQLenPdf::26                181164                       # What write queue length does an incoming req see
system.mem_ctrls0.wrQLenPdf::27                181077                       # What write queue length does an incoming req see
system.mem_ctrls0.wrQLenPdf::28                181192                       # What write queue length does an incoming req see
system.mem_ctrls0.wrQLenPdf::29                181517                       # What write queue length does an incoming req see
system.mem_ctrls0.wrQLenPdf::30                182890                       # What write queue length does an incoming req see
system.mem_ctrls0.wrQLenPdf::31                180267                       # What write queue length does an incoming req see
system.mem_ctrls0.wrQLenPdf::32                180094                       # What write queue length does an incoming req see
system.mem_ctrls0.wrQLenPdf::33                   298                       # What write queue length does an incoming req see
system.mem_ctrls0.wrQLenPdf::34                    88                       # What write queue length does an incoming req see
system.mem_ctrls0.wrQLenPdf::35                    30                       # What write queue length does an incoming req see
system.mem_ctrls0.wrQLenPdf::36                     6                       # What write queue length does an incoming req see
system.mem_ctrls0.wrQLenPdf::37                     1                       # What write queue length does an incoming req see
system.mem_ctrls0.wrQLenPdf::38                     0                       # What write queue length does an incoming req see
system.mem_ctrls0.wrQLenPdf::39                     0                       # What write queue length does an incoming req see
system.mem_ctrls0.wrQLenPdf::40                     0                       # What write queue length does an incoming req see
system.mem_ctrls0.wrQLenPdf::41                     0                       # What write queue length does an incoming req see
system.mem_ctrls0.wrQLenPdf::42                     0                       # What write queue length does an incoming req see
system.mem_ctrls0.wrQLenPdf::43                     0                       # What write queue length does an incoming req see
system.mem_ctrls0.wrQLenPdf::44                     0                       # What write queue length does an incoming req see
system.mem_ctrls0.wrQLenPdf::45                     0                       # What write queue length does an incoming req see
system.mem_ctrls0.wrQLenPdf::46                     0                       # What write queue length does an incoming req see
system.mem_ctrls0.wrQLenPdf::47                     0                       # What write queue length does an incoming req see
system.mem_ctrls0.wrQLenPdf::48                     0                       # What write queue length does an incoming req see
system.mem_ctrls0.wrQLenPdf::49                     0                       # What write queue length does an incoming req see
system.mem_ctrls0.wrQLenPdf::50                     0                       # What write queue length does an incoming req see
system.mem_ctrls0.wrQLenPdf::51                     0                       # What write queue length does an incoming req see
system.mem_ctrls0.wrQLenPdf::52                     0                       # What write queue length does an incoming req see
system.mem_ctrls0.wrQLenPdf::53                     0                       # What write queue length does an incoming req see
system.mem_ctrls0.wrQLenPdf::54                     0                       # What write queue length does an incoming req see
system.mem_ctrls0.wrQLenPdf::55                     0                       # What write queue length does an incoming req see
system.mem_ctrls0.wrQLenPdf::56                     0                       # What write queue length does an incoming req see
system.mem_ctrls0.wrQLenPdf::57                     0                       # What write queue length does an incoming req see
system.mem_ctrls0.wrQLenPdf::58                     0                       # What write queue length does an incoming req see
system.mem_ctrls0.wrQLenPdf::59                     0                       # What write queue length does an incoming req see
system.mem_ctrls0.wrQLenPdf::60                     0                       # What write queue length does an incoming req see
system.mem_ctrls0.wrQLenPdf::61                     0                       # What write queue length does an incoming req see
system.mem_ctrls0.wrQLenPdf::62                     0                       # What write queue length does an incoming req see
system.mem_ctrls0.wrQLenPdf::63                     0                       # What write queue length does an incoming req see
system.mem_ctrls0.bytesPerActivate::samples      5732396                       # Bytes accessed per row activation
system.mem_ctrls0.bytesPerActivate::mean   143.418402                       # Bytes accessed per row activation
system.mem_ctrls0.bytesPerActivate::gmean   100.352632                       # Bytes accessed per row activation
system.mem_ctrls0.bytesPerActivate::stdev   176.276100                       # Bytes accessed per row activation
system.mem_ctrls0.bytesPerActivate::0-127      3663326     63.91%     63.91% # Bytes accessed per row activation
system.mem_ctrls0.bytesPerActivate::128-255      1259658     21.97%     85.88% # Bytes accessed per row activation
system.mem_ctrls0.bytesPerActivate::256-383       318992      5.56%     91.44% # Bytes accessed per row activation
system.mem_ctrls0.bytesPerActivate::384-511       148336      2.59%     94.03% # Bytes accessed per row activation
system.mem_ctrls0.bytesPerActivate::512-639       111177      1.94%     95.97% # Bytes accessed per row activation
system.mem_ctrls0.bytesPerActivate::640-767        74458      1.30%     97.27% # Bytes accessed per row activation
system.mem_ctrls0.bytesPerActivate::768-895        47890      0.84%     98.11% # Bytes accessed per row activation
system.mem_ctrls0.bytesPerActivate::896-1023        32717      0.57%     98.68% # Bytes accessed per row activation
system.mem_ctrls0.bytesPerActivate::1024-1151        75842      1.32%    100.00% # Bytes accessed per row activation
system.mem_ctrls0.bytesPerActivate::total      5732396                       # Bytes accessed per row activation
system.mem_ctrls0.rdPerTurnAround::samples       179988                       # Reads before turning the bus around for writes
system.mem_ctrls0.rdPerTurnAround::mean     53.759690                       # Reads before turning the bus around for writes
system.mem_ctrls0.rdPerTurnAround::stdev   130.569019                       # Reads before turning the bus around for writes
system.mem_ctrls0.rdPerTurnAround::0-1023       179579     99.77%     99.77% # Reads before turning the bus around for writes
system.mem_ctrls0.rdPerTurnAround::1024-2047          356      0.20%     99.97% # Reads before turning the bus around for writes
system.mem_ctrls0.rdPerTurnAround::2048-3071           33      0.02%     99.99% # Reads before turning the bus around for writes
system.mem_ctrls0.rdPerTurnAround::3072-4095           14      0.01%    100.00% # Reads before turning the bus around for writes
system.mem_ctrls0.rdPerTurnAround::4096-5119            4      0.00%    100.00% # Reads before turning the bus around for writes
system.mem_ctrls0.rdPerTurnAround::5120-6143            1      0.00%    100.00% # Reads before turning the bus around for writes
system.mem_ctrls0.rdPerTurnAround::31744-32767            1      0.00%    100.00% # Reads before turning the bus around for writes
system.mem_ctrls0.rdPerTurnAround::total       179988                       # Reads before turning the bus around for writes
system.mem_ctrls0.wrPerTurnAround::samples       179988                       # Writes before turning the bus around for reads
system.mem_ctrls0.wrPerTurnAround::mean     17.610263                       # Writes before turning the bus around for reads
system.mem_ctrls0.wrPerTurnAround::gmean    17.584725                       # Writes before turning the bus around for reads
system.mem_ctrls0.wrPerTurnAround::stdev     0.936133                       # Writes before turning the bus around for reads
system.mem_ctrls0.wrPerTurnAround::16           39861     22.15%     22.15% # Writes before turning the bus around for reads
system.mem_ctrls0.wrPerTurnAround::17            5455      3.03%     25.18% # Writes before turning the bus around for reads
system.mem_ctrls0.wrPerTurnAround::18          121687     67.61%     92.79% # Writes before turning the bus around for reads
system.mem_ctrls0.wrPerTurnAround::19           11326      6.29%     99.08% # Writes before turning the bus around for reads
system.mem_ctrls0.wrPerTurnAround::20            1377      0.77%     99.84% # Writes before turning the bus around for reads
system.mem_ctrls0.wrPerTurnAround::21             210      0.12%     99.96% # Writes before turning the bus around for reads
system.mem_ctrls0.wrPerTurnAround::22              48      0.03%     99.99% # Writes before turning the bus around for reads
system.mem_ctrls0.wrPerTurnAround::23              18      0.01%    100.00% # Writes before turning the bus around for reads
system.mem_ctrls0.wrPerTurnAround::24               5      0.00%    100.00% # Writes before turning the bus around for reads
system.mem_ctrls0.wrPerTurnAround::25               1      0.00%    100.00% # Writes before turning the bus around for reads
system.mem_ctrls0.wrPerTurnAround::total       179988                       # Writes before turning the bus around for reads
system.mem_ctrls0.totQLat                190893760919                       # Total ticks spent queuing
system.mem_ctrls0.totMemAccLat           372322117169                       # Total ticks spent from burst creation until serviced by the DRAM
system.mem_ctrls0.totBusLat               48380895000                       # Total ticks spent in databus transfers
system.mem_ctrls0.avgQLat                    19728.22                       # Average queueing delay per DRAM burst
system.mem_ctrls0.avgBusLat                   5000.00                       # Average bus latency per DRAM burst
system.mem_ctrls0.avgMemAccLat               38478.22                       # Average memory access latency per DRAM burst
system.mem_ctrls0.avgRdBW                      149.07                       # Average DRAM read bandwidth in MiByte/s
system.mem_ctrls0.avgWrBW                       48.83                       # Average achieved write bandwidth in MiByte/s
system.mem_ctrls0.avgRdBWSys                   149.18                       # Average system read bandwidth in MiByte/s
system.mem_ctrls0.avgWrBWSys                    48.83                       # Average system write bandwidth in MiByte/s
system.mem_ctrls0.peakBW                     12800.00                       # Theoretical peak bandwidth in MiByte/s
system.mem_ctrls0.busUtil                        1.55                       # Data bus utilization in percentage
system.mem_ctrls0.busUtilRead                    1.16                       # Data bus utilization in percentage for reads
system.mem_ctrls0.busUtilWrite                   0.38                       # Data bus utilization in percentage for writes
system.mem_ctrls0.avgRdQLen                      1.06                       # Average read queue length when enqueuing
system.mem_ctrls0.avgWrQLen                     24.59                       # Average write queue length when enqueuing
system.mem_ctrls0.readRowHits                 6272516                       # Number of row buffer hits during reads
system.mem_ctrls0.writeRowHits                 840894                       # Number of row buffer hits during writes
system.mem_ctrls0.readRowHitRate                64.82                       # Row buffer hit rate for reads
system.mem_ctrls0.writeRowHitRate               26.53                       # Row buffer hit rate for writes
system.mem_ctrls0.avgGap                    323218.07                       # Average gap between requests
system.mem_ctrls0.pageHitRate                   55.38                       # Row buffer hit rate, read and write combined
system.mem_ctrls0_0.actEnergy             20555274600                       # Energy for activate commands per rank (pJ)
system.mem_ctrls0_0.preEnergy             10925379960                       # Energy for precharge commands per rank (pJ)
system.mem_ctrls0_0.readEnergy            34848290820                       # Energy for read commands per rank (pJ)
system.mem_ctrls0_0.writeEnergy            8322162480                       # Energy for write commands per rank (pJ)
system.mem_ctrls0_0.refreshEnergy        316615815360.000061                       # Energy for refresh commands per rank (pJ)
system.mem_ctrls0_0.actBackEnergy        203695872600                       # Energy for active background per rank (pJ)
system.mem_ctrls0_0.preBackEnergy          9044501280                       # Energy for precharge background per rank (pJ)
system.mem_ctrls0_0.actPowerDownEnergy   1303184698080                       # Energy for active power-down per rank (pJ)
system.mem_ctrls0_0.prePowerDownEnergy   201522398880                       # Energy for precharge power-down per rank (pJ)
system.mem_ctrls0_0.selfRefreshEnergy     84356033610                       # Energy for self refresh per rank (pJ)
system.mem_ctrls0_0.totalEnergy          2193192651480                       # Total energy per rank (pJ)
system.mem_ctrls0_0.averagePower           527.954428                       # Core power per rank (mW)
system.mem_ctrls0_0.totalIdleTime        3683609220508                       # Total Idle time Per DRAM Rank
system.mem_ctrls0_0.memoryStateTime::IDLE   8756992686                       # Time in different power states
system.mem_ctrls0_0.memoryStateTime::REF 134076906000                       # Time in different power states
system.mem_ctrls0_0.memoryStateTime::SREF 300946625645                       # Time in different power states
system.mem_ctrls0_0.memoryStateTime::PRE_PDN 524800346936                       # Time in different power states
system.mem_ctrls0_0.memoryStateTime::ACT 327688856079                       # Time in different power states
system.mem_ctrls0_0.memoryStateTime::ACT_PDN 2857862733569                       # Time in different power states
system.mem_ctrls0_1.actEnergy             20374097100                       # Energy for activate commands per rank (pJ)
system.mem_ctrls0_1.preEnergy             10829062860                       # Energy for precharge commands per rank (pJ)
system.mem_ctrls0_1.readEnergy            34239627240                       # Energy for read commands per rank (pJ)
system.mem_ctrls0_1.writeEnergy            8223337440                       # Energy for write commands per rank (pJ)
system.mem_ctrls0_1.refreshEnergy        316159137840.000061                       # Energy for refresh commands per rank (pJ)
system.mem_ctrls0_1.actBackEnergy        205335331680                       # Energy for active background per rank (pJ)
system.mem_ctrls0_1.preBackEnergy          9139431840                       # Energy for precharge background per rank (pJ)
system.mem_ctrls0_1.actPowerDownEnergy   1292556202770                       # Energy for active power-down per rank (pJ)
system.mem_ctrls0_1.prePowerDownEnergy   202722684960                       # Energy for precharge power-down per rank (pJ)
system.mem_ctrls0_1.selfRefreshEnergy     89081100900                       # Energy for self refresh per rank (pJ)
system.mem_ctrls0_1.totalEnergy          2188779278970                       # Total energy per rank (pJ)
system.mem_ctrls0_1.averagePower           526.892022                       # Core power per rank (mW)
system.mem_ctrls0_1.totalIdleTime        3679777429079                       # Total Idle time Per DRAM Rank
system.mem_ctrls0_1.memoryStateTime::IDLE   9123307505                       # Time in different power states
system.mem_ctrls0_1.memoryStateTime::REF 133891034000                       # Time in different power states
system.mem_ctrls0_1.memoryStateTime::SREF 317292948794                       # Time in different power states
system.mem_ctrls0_1.memoryStateTime::PRE_PDN 527923649787                       # Time in different power states
system.mem_ctrls0_1.memoryStateTime::ACT 331340241088                       # Time in different power states
system.mem_ctrls0_1.memoryStateTime::ACT_PDN 2834561279741                       # Time in different power states
system.mem_ctrls1.pwrStateResidencyTicks::UNDEFINED 74184105042261                       # Cumulative time (in ticks) in various power states
system.mem_ctrls1.bytes_read::cpu.inst             64                       # Number of bytes read from this memory
system.mem_ctrls1.bytes_read::switch_cpus.inst       138624                       # Number of bytes read from this memory
system.mem_ctrls1.bytes_read::switch_cpus.data    408320832                       # Number of bytes read from this memory
system.mem_ctrls1.bytes_read::switch_cpus_1.inst        99072                       # Number of bytes read from this memory
system.mem_ctrls1.bytes_read::switch_cpus_1.data    211535872                       # Number of bytes read from this memory
system.mem_ctrls1.bytes_read::total         620094464                       # Number of bytes read from this memory
system.mem_ctrls1.bytes_inst_read::cpu.inst           64                       # Number of instructions bytes read from this memory
system.mem_ctrls1.bytes_inst_read::switch_cpus.inst       138624                       # Number of instructions bytes read from this memory
system.mem_ctrls1.bytes_inst_read::switch_cpus_1.inst        99072                       # Number of instructions bytes read from this memory
system.mem_ctrls1.bytes_inst_read::total       237760                       # Number of instructions bytes read from this memory
system.mem_ctrls1.bytes_written::writebacks    202924288                       # Number of bytes written to this memory
system.mem_ctrls1.bytes_written::total      202924288                       # Number of bytes written to this memory
system.mem_ctrls1.num_reads::cpu.inst               1                       # Number of read requests responded to by this memory
system.mem_ctrls1.num_reads::switch_cpus.inst         2166                       # Number of read requests responded to by this memory
system.mem_ctrls1.num_reads::switch_cpus.data      6380013                       # Number of read requests responded to by this memory
system.mem_ctrls1.num_reads::switch_cpus_1.inst         1548                       # Number of read requests responded to by this memory
system.mem_ctrls1.num_reads::switch_cpus_1.data      3305248                       # Number of read requests responded to by this memory
system.mem_ctrls1.num_reads::total            9688976                       # Number of read requests responded to by this memory
system.mem_ctrls1.num_writes::writebacks      3170692                       # Number of write requests responded to by this memory
system.mem_ctrls1.num_writes::total           3170692                       # Number of write requests responded to by this memory
system.mem_ctrls1.bw_read::cpu.inst                15                       # Total read bandwidth from this memory (bytes/s)
system.mem_ctrls1.bw_read::switch_cpus.inst        33370                       # Total read bandwidth from this memory (bytes/s)
system.mem_ctrls1.bw_read::switch_cpus.data     98292685                       # Total read bandwidth from this memory (bytes/s)
system.mem_ctrls1.bw_read::switch_cpus_1.inst        23849                       # Total read bandwidth from this memory (bytes/s)
system.mem_ctrls1.bw_read::switch_cpus_1.data     50921793                       # Total read bandwidth from this memory (bytes/s)
system.mem_ctrls1.bw_read::total            149271712                       # Total read bandwidth from this memory (bytes/s)
system.mem_ctrls1.bw_inst_read::cpu.inst           15                       # Instruction read bandwidth from this memory (bytes/s)
system.mem_ctrls1.bw_inst_read::switch_cpus.inst        33370                       # Instruction read bandwidth from this memory (bytes/s)
system.mem_ctrls1.bw_inst_read::switch_cpus_1.inst        23849                       # Instruction read bandwidth from this memory (bytes/s)
system.mem_ctrls1.bw_inst_read::total           57235                       # Instruction read bandwidth from this memory (bytes/s)
system.mem_ctrls1.bw_write::writebacks       48848776                       # Write bandwidth from this memory (bytes/s)
system.mem_ctrls1.bw_write::total            48848776                       # Write bandwidth from this memory (bytes/s)
system.mem_ctrls1.bw_total::writebacks       48848776                       # Total bandwidth to/from this memory (bytes/s)
system.mem_ctrls1.bw_total::cpu.inst               15                       # Total bandwidth to/from this memory (bytes/s)
system.mem_ctrls1.bw_total::switch_cpus.inst        33370                       # Total bandwidth to/from this memory (bytes/s)
system.mem_ctrls1.bw_total::switch_cpus.data     98292685                       # Total bandwidth to/from this memory (bytes/s)
system.mem_ctrls1.bw_total::switch_cpus_1.inst        23849                       # Total bandwidth to/from this memory (bytes/s)
system.mem_ctrls1.bw_total::switch_cpus_1.data     50921793                       # Total bandwidth to/from this memory (bytes/s)
system.mem_ctrls1.bw_total::total           198120488                       # Total bandwidth to/from this memory (bytes/s)
system.mem_ctrls1.readReqs                    9688976                       # Number of read requests accepted
system.mem_ctrls1.writeReqs                   3170692                       # Number of write requests accepted
system.mem_ctrls1.readBursts                  9688976                       # Number of DRAM read bursts, including those serviced by the write queue
system.mem_ctrls1.writeBursts                 3170692                       # Number of DRAM write bursts, including those merged in the write queue
system.mem_ctrls1.bytesReadDRAM             619687872                       # Total number of bytes read from DRAM
system.mem_ctrls1.bytesReadWrQ                 406592                       # Total number of bytes read from write queue
system.mem_ctrls1.bytesWritten              202922368                       # Total number of bytes written to DRAM
system.mem_ctrls1.bytesReadSys              620094464                       # Total read bytes from the system interface side
system.mem_ctrls1.bytesWrittenSys           202924288                       # Total written bytes from the system interface side
system.mem_ctrls1.servicedByWrQ                  6353                       # Number of DRAM read bursts serviced by the write queue
system.mem_ctrls1.mergedWrBursts                    0                       # Number of DRAM write bursts merged with an existing one
system.mem_ctrls1.neitherReadNorWriteReqs            0                       # Number of requests that are neither read nor write
system.mem_ctrls1.perBankRdBursts::0           646169                       # Per bank write bursts
system.mem_ctrls1.perBankRdBursts::1           610047                       # Per bank write bursts
system.mem_ctrls1.perBankRdBursts::2           604045                       # Per bank write bursts
system.mem_ctrls1.perBankRdBursts::3           611999                       # Per bank write bursts
system.mem_ctrls1.perBankRdBursts::4           607546                       # Per bank write bursts
system.mem_ctrls1.perBankRdBursts::5           620102                       # Per bank write bursts
system.mem_ctrls1.perBankRdBursts::6           589570                       # Per bank write bursts
system.mem_ctrls1.perBankRdBursts::7           595605                       # Per bank write bursts
system.mem_ctrls1.perBankRdBursts::8           614730                       # Per bank write bursts
system.mem_ctrls1.perBankRdBursts::9           594778                       # Per bank write bursts
system.mem_ctrls1.perBankRdBursts::10          597520                       # Per bank write bursts
system.mem_ctrls1.perBankRdBursts::11          605425                       # Per bank write bursts
system.mem_ctrls1.perBankRdBursts::12          592660                       # Per bank write bursts
system.mem_ctrls1.perBankRdBursts::13          594641                       # Per bank write bursts
system.mem_ctrls1.perBankRdBursts::14          592039                       # Per bank write bursts
system.mem_ctrls1.perBankRdBursts::15          605747                       # Per bank write bursts
system.mem_ctrls1.perBankWrBursts::0           211936                       # Per bank write bursts
system.mem_ctrls1.perBankWrBursts::1           195711                       # Per bank write bursts
system.mem_ctrls1.perBankWrBursts::2           199977                       # Per bank write bursts
system.mem_ctrls1.perBankWrBursts::3           202707                       # Per bank write bursts
system.mem_ctrls1.perBankWrBursts::4           199911                       # Per bank write bursts
system.mem_ctrls1.perBankWrBursts::5           200131                       # Per bank write bursts
system.mem_ctrls1.perBankWrBursts::6           191827                       # Per bank write bursts
system.mem_ctrls1.perBankWrBursts::7           194251                       # Per bank write bursts
system.mem_ctrls1.perBankWrBursts::8           195988                       # Per bank write bursts
system.mem_ctrls1.perBankWrBursts::9           192073                       # Per bank write bursts
system.mem_ctrls1.perBankWrBursts::10          191560                       # Per bank write bursts
system.mem_ctrls1.perBankWrBursts::11          192218                       # Per bank write bursts
system.mem_ctrls1.perBankWrBursts::12          190908                       # Per bank write bursts
system.mem_ctrls1.perBankWrBursts::13          195158                       # Per bank write bursts
system.mem_ctrls1.perBankWrBursts::14          206122                       # Per bank write bursts
system.mem_ctrls1.perBankWrBursts::15          210184                       # Per bank write bursts
system.mem_ctrls1.numRdRetry                        0                       # Number of times read queue was full causing retry
system.mem_ctrls1.numWrRetry                        0                       # Number of times write queue was full causing retry
system.mem_ctrls1.totGap                 4154132120669                       # Total gap between requests
system.mem_ctrls1.readPktSize::0                    0                       # Read request sizes (log2)
system.mem_ctrls1.readPktSize::1                    0                       # Read request sizes (log2)
system.mem_ctrls1.readPktSize::2                    0                       # Read request sizes (log2)
system.mem_ctrls1.readPktSize::3                    0                       # Read request sizes (log2)
system.mem_ctrls1.readPktSize::4                    0                       # Read request sizes (log2)
system.mem_ctrls1.readPktSize::5                    0                       # Read request sizes (log2)
system.mem_ctrls1.readPktSize::6              9688976                       # Read request sizes (log2)
system.mem_ctrls1.writePktSize::0                   0                       # Write request sizes (log2)
system.mem_ctrls1.writePktSize::1                   0                       # Write request sizes (log2)
system.mem_ctrls1.writePktSize::2                   0                       # Write request sizes (log2)
system.mem_ctrls1.writePktSize::3                   0                       # Write request sizes (log2)
system.mem_ctrls1.writePktSize::4                   0                       # Write request sizes (log2)
system.mem_ctrls1.writePktSize::5                   0                       # Write request sizes (log2)
system.mem_ctrls1.writePktSize::6             3170692                       # Write request sizes (log2)
system.mem_ctrls1.rdQLenPdf::0                8800656                       # What read queue length does an incoming req see
system.mem_ctrls1.rdQLenPdf::1                 754360                       # What read queue length does an incoming req see
system.mem_ctrls1.rdQLenPdf::2                 118375                       # What read queue length does an incoming req see
system.mem_ctrls1.rdQLenPdf::3                   9229                       # What read queue length does an incoming req see
system.mem_ctrls1.rdQLenPdf::4                      3                       # What read queue length does an incoming req see
system.mem_ctrls1.rdQLenPdf::5                      0                       # What read queue length does an incoming req see
system.mem_ctrls1.rdQLenPdf::6                      0                       # What read queue length does an incoming req see
system.mem_ctrls1.rdQLenPdf::7                      0                       # What read queue length does an incoming req see
system.mem_ctrls1.rdQLenPdf::8                      0                       # What read queue length does an incoming req see
system.mem_ctrls1.rdQLenPdf::9                      0                       # What read queue length does an incoming req see
system.mem_ctrls1.rdQLenPdf::10                     0                       # What read queue length does an incoming req see
system.mem_ctrls1.rdQLenPdf::11                     0                       # What read queue length does an incoming req see
system.mem_ctrls1.rdQLenPdf::12                     0                       # What read queue length does an incoming req see
system.mem_ctrls1.rdQLenPdf::13                     0                       # What read queue length does an incoming req see
system.mem_ctrls1.rdQLenPdf::14                     0                       # What read queue length does an incoming req see
system.mem_ctrls1.rdQLenPdf::15                     0                       # What read queue length does an incoming req see
system.mem_ctrls1.rdQLenPdf::16                     0                       # What read queue length does an incoming req see
system.mem_ctrls1.rdQLenPdf::17                     0                       # What read queue length does an incoming req see
system.mem_ctrls1.rdQLenPdf::18                     0                       # What read queue length does an incoming req see
system.mem_ctrls1.rdQLenPdf::19                     0                       # What read queue length does an incoming req see
system.mem_ctrls1.rdQLenPdf::20                     0                       # What read queue length does an incoming req see
system.mem_ctrls1.rdQLenPdf::21                     0                       # What read queue length does an incoming req see
system.mem_ctrls1.rdQLenPdf::22                     0                       # What read queue length does an incoming req see
system.mem_ctrls1.rdQLenPdf::23                     0                       # What read queue length does an incoming req see
system.mem_ctrls1.rdQLenPdf::24                     0                       # What read queue length does an incoming req see
system.mem_ctrls1.rdQLenPdf::25                     0                       # What read queue length does an incoming req see
system.mem_ctrls1.rdQLenPdf::26                     0                       # What read queue length does an incoming req see
system.mem_ctrls1.rdQLenPdf::27                     0                       # What read queue length does an incoming req see
system.mem_ctrls1.rdQLenPdf::28                     0                       # What read queue length does an incoming req see
system.mem_ctrls1.rdQLenPdf::29                     0                       # What read queue length does an incoming req see
system.mem_ctrls1.rdQLenPdf::30                     0                       # What read queue length does an incoming req see
system.mem_ctrls1.rdQLenPdf::31                     0                       # What read queue length does an incoming req see
system.mem_ctrls1.wrQLenPdf::0                      2                       # What write queue length does an incoming req see
system.mem_ctrls1.wrQLenPdf::1                      2                       # What write queue length does an incoming req see
system.mem_ctrls1.wrQLenPdf::2                      2                       # What write queue length does an incoming req see
system.mem_ctrls1.wrQLenPdf::3                      2                       # What write queue length does an incoming req see
system.mem_ctrls1.wrQLenPdf::4                      2                       # What write queue length does an incoming req see
system.mem_ctrls1.wrQLenPdf::5                      2                       # What write queue length does an incoming req see
system.mem_ctrls1.wrQLenPdf::6                      2                       # What write queue length does an incoming req see
system.mem_ctrls1.wrQLenPdf::7                      2                       # What write queue length does an incoming req see
system.mem_ctrls1.wrQLenPdf::8                      2                       # What write queue length does an incoming req see
system.mem_ctrls1.wrQLenPdf::9                      2                       # What write queue length does an incoming req see
system.mem_ctrls1.wrQLenPdf::10                     2                       # What write queue length does an incoming req see
system.mem_ctrls1.wrQLenPdf::11                     2                       # What write queue length does an incoming req see
system.mem_ctrls1.wrQLenPdf::12                     2                       # What write queue length does an incoming req see
system.mem_ctrls1.wrQLenPdf::13                     2                       # What write queue length does an incoming req see
system.mem_ctrls1.wrQLenPdf::14                     2                       # What write queue length does an incoming req see
system.mem_ctrls1.wrQLenPdf::15                133685                       # What write queue length does an incoming req see
system.mem_ctrls1.wrQLenPdf::16                140290                       # What write queue length does an incoming req see
system.mem_ctrls1.wrQLenPdf::17                175604                       # What write queue length does an incoming req see
system.mem_ctrls1.wrQLenPdf::18                180437                       # What write queue length does an incoming req see
system.mem_ctrls1.wrQLenPdf::19                181052                       # What write queue length does an incoming req see
system.mem_ctrls1.wrQLenPdf::20                181172                       # What write queue length does an incoming req see
system.mem_ctrls1.wrQLenPdf::21                181407                       # What write queue length does an incoming req see
system.mem_ctrls1.wrQLenPdf::22                182145                       # What write queue length does an incoming req see
system.mem_ctrls1.wrQLenPdf::23                182805                       # What write queue length does an incoming req see
system.mem_ctrls1.wrQLenPdf::24                181757                       # What write queue length does an incoming req see
system.mem_ctrls1.wrQLenPdf::25                181336                       # What write queue length does an incoming req see
system.mem_ctrls1.wrQLenPdf::26                181204                       # What write queue length does an incoming req see
system.mem_ctrls1.wrQLenPdf::27                181128                       # What write queue length does an incoming req see
system.mem_ctrls1.wrQLenPdf::28                181263                       # What write queue length does an incoming req see
system.mem_ctrls1.wrQLenPdf::29                181540                       # What write queue length does an incoming req see
system.mem_ctrls1.wrQLenPdf::30                182971                       # What write queue length does an incoming req see
system.mem_ctrls1.wrQLenPdf::31                180319                       # What write queue length does an incoming req see
system.mem_ctrls1.wrQLenPdf::32                180152                       # What write queue length does an incoming req see
system.mem_ctrls1.wrQLenPdf::33                   279                       # What write queue length does an incoming req see
system.mem_ctrls1.wrQLenPdf::34                    79                       # What write queue length does an incoming req see
system.mem_ctrls1.wrQLenPdf::35                    27                       # What write queue length does an incoming req see
system.mem_ctrls1.wrQLenPdf::36                     8                       # What write queue length does an incoming req see
system.mem_ctrls1.wrQLenPdf::37                     2                       # What write queue length does an incoming req see
system.mem_ctrls1.wrQLenPdf::38                     0                       # What write queue length does an incoming req see
system.mem_ctrls1.wrQLenPdf::39                     0                       # What write queue length does an incoming req see
system.mem_ctrls1.wrQLenPdf::40                     0                       # What write queue length does an incoming req see
system.mem_ctrls1.wrQLenPdf::41                     0                       # What write queue length does an incoming req see
system.mem_ctrls1.wrQLenPdf::42                     0                       # What write queue length does an incoming req see
system.mem_ctrls1.wrQLenPdf::43                     0                       # What write queue length does an incoming req see
system.mem_ctrls1.wrQLenPdf::44                     0                       # What write queue length does an incoming req see
system.mem_ctrls1.wrQLenPdf::45                     0                       # What write queue length does an incoming req see
system.mem_ctrls1.wrQLenPdf::46                     0                       # What write queue length does an incoming req see
system.mem_ctrls1.wrQLenPdf::47                     0                       # What write queue length does an incoming req see
system.mem_ctrls1.wrQLenPdf::48                     0                       # What write queue length does an incoming req see
system.mem_ctrls1.wrQLenPdf::49                     0                       # What write queue length does an incoming req see
system.mem_ctrls1.wrQLenPdf::50                     0                       # What write queue length does an incoming req see
system.mem_ctrls1.wrQLenPdf::51                     0                       # What write queue length does an incoming req see
system.mem_ctrls1.wrQLenPdf::52                     0                       # What write queue length does an incoming req see
system.mem_ctrls1.wrQLenPdf::53                     0                       # What write queue length does an incoming req see
system.mem_ctrls1.wrQLenPdf::54                     0                       # What write queue length does an incoming req see
system.mem_ctrls1.wrQLenPdf::55                     0                       # What write queue length does an incoming req see
system.mem_ctrls1.wrQLenPdf::56                     0                       # What write queue length does an incoming req see
system.mem_ctrls1.wrQLenPdf::57                     0                       # What write queue length does an incoming req see
system.mem_ctrls1.wrQLenPdf::58                     0                       # What write queue length does an incoming req see
system.mem_ctrls1.wrQLenPdf::59                     0                       # What write queue length does an incoming req see
system.mem_ctrls1.wrQLenPdf::60                     0                       # What write queue length does an incoming req see
system.mem_ctrls1.wrQLenPdf::61                     0                       # What write queue length does an incoming req see
system.mem_ctrls1.wrQLenPdf::62                     0                       # What write queue length does an incoming req see
system.mem_ctrls1.wrQLenPdf::63                     0                       # What write queue length does an incoming req see
system.mem_ctrls1.bytesPerActivate::samples      5740872                       # Bytes accessed per row activation
system.mem_ctrls1.bytesPerActivate::mean   143.290087                       # Bytes accessed per row activation
system.mem_ctrls1.bytesPerActivate::gmean   100.336204                       # Bytes accessed per row activation
system.mem_ctrls1.bytesPerActivate::stdev   176.016787                       # Bytes accessed per row activation
system.mem_ctrls1.bytesPerActivate::0-127      3666808     63.87%     63.87% # Bytes accessed per row activation
system.mem_ctrls1.bytesPerActivate::128-255      1264928     22.03%     85.91% # Bytes accessed per row activation
system.mem_ctrls1.bytesPerActivate::256-383       320349      5.58%     91.49% # Bytes accessed per row activation
system.mem_ctrls1.bytesPerActivate::384-511       147749      2.57%     94.06% # Bytes accessed per row activation
system.mem_ctrls1.bytesPerActivate::512-639       111124      1.94%     96.00% # Bytes accessed per row activation
system.mem_ctrls1.bytesPerActivate::640-767        73554      1.28%     97.28% # Bytes accessed per row activation
system.mem_ctrls1.bytesPerActivate::768-895        47633      0.83%     98.11% # Bytes accessed per row activation
system.mem_ctrls1.bytesPerActivate::896-1023        33099      0.58%     98.68% # Bytes accessed per row activation
system.mem_ctrls1.bytesPerActivate::1024-1151        75628      1.32%    100.00% # Bytes accessed per row activation
system.mem_ctrls1.bytesPerActivate::total      5740872                       # Bytes accessed per row activation
system.mem_ctrls1.rdPerTurnAround::samples       180036                       # Reads before turning the bus around for writes
system.mem_ctrls1.rdPerTurnAround::mean     53.780655                       # Reads before turning the bus around for writes
system.mem_ctrls1.rdPerTurnAround::stdev   129.358651                       # Reads before turning the bus around for writes
system.mem_ctrls1.rdPerTurnAround::0-1023       179619     99.77%     99.77% # Reads before turning the bus around for writes
system.mem_ctrls1.rdPerTurnAround::1024-2047          355      0.20%     99.97% # Reads before turning the bus around for writes
system.mem_ctrls1.rdPerTurnAround::2048-3071           45      0.02%     99.99% # Reads before turning the bus around for writes
system.mem_ctrls1.rdPerTurnAround::3072-4095           12      0.01%    100.00% # Reads before turning the bus around for writes
system.mem_ctrls1.rdPerTurnAround::4096-5119            3      0.00%    100.00% # Reads before turning the bus around for writes
system.mem_ctrls1.rdPerTurnAround::5120-6143            1      0.00%    100.00% # Reads before turning the bus around for writes
system.mem_ctrls1.rdPerTurnAround::31744-32767            1      0.00%    100.00% # Reads before turning the bus around for writes
system.mem_ctrls1.rdPerTurnAround::total       180036                       # Reads before turning the bus around for writes
system.mem_ctrls1.wrPerTurnAround::samples       180036                       # Writes before turning the bus around for reads
system.mem_ctrls1.wrPerTurnAround::mean     17.611267                       # Writes before turning the bus around for reads
system.mem_ctrls1.wrPerTurnAround::gmean    17.585872                       # Writes before turning the bus around for reads
system.mem_ctrls1.wrPerTurnAround::stdev     0.933439                       # Writes before turning the bus around for reads
system.mem_ctrls1.wrPerTurnAround::16           39659     22.03%     22.03% # Writes before turning the bus around for reads
system.mem_ctrls1.wrPerTurnAround::17            5555      3.09%     25.11% # Writes before turning the bus around for reads
system.mem_ctrls1.wrPerTurnAround::18          121917     67.72%     92.83% # Writes before turning the bus around for reads
system.mem_ctrls1.wrPerTurnAround::19           11271      6.26%     99.09% # Writes before turning the bus around for reads
system.mem_ctrls1.wrPerTurnAround::20            1387      0.77%     99.86% # Writes before turning the bus around for reads
system.mem_ctrls1.wrPerTurnAround::21             188      0.10%     99.97% # Writes before turning the bus around for reads
system.mem_ctrls1.wrPerTurnAround::22              33      0.02%     99.99% # Writes before turning the bus around for reads
system.mem_ctrls1.wrPerTurnAround::23              16      0.01%     99.99% # Writes before turning the bus around for reads
system.mem_ctrls1.wrPerTurnAround::24               6      0.00%    100.00% # Writes before turning the bus around for reads
system.mem_ctrls1.wrPerTurnAround::25               2      0.00%    100.00% # Writes before turning the bus around for reads
system.mem_ctrls1.wrPerTurnAround::26               2      0.00%    100.00% # Writes before turning the bus around for reads
system.mem_ctrls1.wrPerTurnAround::total       180036                       # Writes before turning the bus around for reads
system.mem_ctrls1.totQLat                190964422428                       # Total ticks spent queuing
system.mem_ctrls1.totMemAccLat           372513603678                       # Total ticks spent from burst creation until serviced by the DRAM
system.mem_ctrls1.totBusLat               48413115000                       # Total ticks spent in databus transfers
system.mem_ctrls1.avgQLat                    19722.39                       # Average queueing delay per DRAM burst
system.mem_ctrls1.avgBusLat                   5000.00                       # Average bus latency per DRAM burst
system.mem_ctrls1.avgMemAccLat               38472.39                       # Average memory access latency per DRAM burst
system.mem_ctrls1.avgRdBW                      149.17                       # Average DRAM read bandwidth in MiByte/s
system.mem_ctrls1.avgWrBW                       48.85                       # Average achieved write bandwidth in MiByte/s
system.mem_ctrls1.avgRdBWSys                   149.27                       # Average system read bandwidth in MiByte/s
system.mem_ctrls1.avgWrBWSys                    48.85                       # Average system write bandwidth in MiByte/s
system.mem_ctrls1.peakBW                     12800.00                       # Theoretical peak bandwidth in MiByte/s
system.mem_ctrls1.busUtil                        1.55                       # Data bus utilization in percentage
system.mem_ctrls1.busUtilRead                    1.17                       # Data bus utilization in percentage for reads
system.mem_ctrls1.busUtilWrite                   0.38                       # Data bus utilization in percentage for writes
system.mem_ctrls1.avgRdQLen                      1.06                       # Average read queue length when enqueuing
system.mem_ctrls1.avgWrQLen                     24.60                       # Average write queue length when enqueuing
system.mem_ctrls1.readRowHits                 6270459                       # Number of row buffer hits during reads
system.mem_ctrls1.writeRowHits                 841951                       # Number of row buffer hits during writes
system.mem_ctrls1.readRowHitRate                64.76                       # Row buffer hit rate for reads
system.mem_ctrls1.writeRowHitRate               26.55                       # Row buffer hit rate for writes
system.mem_ctrls1.avgGap                    323035.72                       # Average gap between requests
system.mem_ctrls1.pageHitRate                   55.34                       # Row buffer hit rate, read and write combined
system.mem_ctrls1_0.actEnergy             20583763200                       # Energy for activate commands per rank (pJ)
system.mem_ctrls1_0.preEnergy             10940525805                       # Energy for precharge commands per rank (pJ)
system.mem_ctrls1_0.readEnergy            34879492620                       # Energy for read commands per rank (pJ)
system.mem_ctrls1_0.writeEnergy            8333474220                       # Energy for write commands per rank (pJ)
system.mem_ctrls1_0.refreshEnergy        316556809920.000061                       # Energy for refresh commands per rank (pJ)
system.mem_ctrls1_0.actBackEnergy        202744050690                       # Energy for active background per rank (pJ)
system.mem_ctrls1_0.preBackEnergy          9017748480                       # Energy for precharge background per rank (pJ)
system.mem_ctrls1_0.actPowerDownEnergy   1305869854080                       # Energy for active power-down per rank (pJ)
system.mem_ctrls1_0.prePowerDownEnergy   200566172640                       # Energy for precharge power-down per rank (pJ)
system.mem_ctrls1_0.selfRefreshEnergy     83908270110                       # Energy for self refresh per rank (pJ)
system.mem_ctrls1_0.totalEnergy          2193527824125                       # Total energy per rank (pJ)
system.mem_ctrls1_0.averagePower           528.035110                       # Core power per rank (mW)
system.mem_ctrls1_0.totalIdleTime        3685752100395                       # Total Idle time Per DRAM Rank
system.mem_ctrls1_0.memoryStateTime::IDLE   8693849936                       # Time in different power states
system.mem_ctrls1_0.memoryStateTime::REF 134049612000                       # Time in different power states
system.mem_ctrls1_0.memoryStateTime::SREF 299693031068                       # Time in different power states
system.mem_ctrls1_0.memoryStateTime::PRE_PDN 522307177017                       # Time in different power states
system.mem_ctrls1_0.memoryStateTime::ACT 325636246109                       # Time in different power states
system.mem_ctrls1_0.memoryStateTime::ACT_PDN 2863752544785                       # Time in different power states
system.mem_ctrls1_1.actEnergy             20406084300                       # Energy for activate commands per rank (pJ)
system.mem_ctrls1_1.preEnergy             10846083435                       # Energy for precharge commands per rank (pJ)
system.mem_ctrls1_1.readEnergy            34254435600                       # Energy for read commands per rank (pJ)
system.mem_ctrls1_1.writeEnergy            8217381420                       # Energy for write commands per rank (pJ)
system.mem_ctrls1_1.refreshEnergy        316197860160.000061                       # Energy for refresh commands per rank (pJ)
system.mem_ctrls1_1.actBackEnergy        205829752530                       # Energy for active background per rank (pJ)
system.mem_ctrls1_1.preBackEnergy          9124794720                       # Energy for precharge background per rank (pJ)
system.mem_ctrls1_1.actPowerDownEnergy   1293194094330                       # Energy for active power-down per rank (pJ)
system.mem_ctrls1_1.prePowerDownEnergy   202399722720                       # Energy for precharge power-down per rank (pJ)
system.mem_ctrls1_1.selfRefreshEnergy     88611975390                       # Energy for self refresh per rank (pJ)
system.mem_ctrls1_1.totalEnergy          2189201179305                       # Total energy per rank (pJ)
system.mem_ctrls1_1.averagePower           526.993585                       # Core power per rank (mW)
system.mem_ctrls1_1.totalIdleTime        3678732257108                       # Total Idle time Per DRAM Rank
system.mem_ctrls1_1.memoryStateTime::IDLE   9090220488                       # Time in different power states
system.mem_ctrls1_1.memoryStateTime::REF 133906640000                       # Time in different power states
system.mem_ctrls1_1.memoryStateTime::SREF 315689689579                       # Time in different power states
system.mem_ctrls1_1.memoryStateTime::PRE_PDN 527088510911                       # Time in different power states
system.mem_ctrls1_1.memoryStateTime::ACT 332403234726                       # Time in different power states
system.mem_ctrls1_1.memoryStateTime::ACT_PDN 2835954165211                       # Time in different power states
system.pwrStateResidencyTicks::UNDEFINED 74184105042261                       # Cumulative time (in ticks) in various power states
system.cpu.branchPred.lookups                       1                       # Number of BP lookups
system.cpu.branchPred.condPredicted                 1                       # Number of conditional branches predicted
system.cpu.branchPred.condIncorrect                 0                       # Number of conditional branches incorrect
system.cpu.branchPred.BTBLookups                    0                       # Number of BTB lookups
system.cpu.branchPred.BTBHits                       0                       # Number of BTB hits
system.cpu.branchPred.BTBCorrect                    0                       # Number of correct BTB predictions (this stat may not work properly.
system.cpu.branchPred.BTBHitPct                   nan                       # BTB Hit Percentage
system.cpu.branchPred.usedRAS                       0                       # Number of times the RAS was used to get a target.
system.cpu.branchPred.RASInCorrect                  0                       # Number of incorrect RAS predictions.
system.cpu.branchPred.indirectLookups               0                       # Number of indirect predictor lookups.
system.cpu.branchPred.indirectHits                  0                       # Number of indirect target hits.
system.cpu.branchPred.indirectMisses                0                       # Number of indirect misses.
system.cpu.branchPredindirectMispredicted            0                       # Number of mispredicted indirect branches.
system.cpu_voltage_domain.voltage                   1                       # Voltage in Volts
system.cpu_clk_domain.clock                       333                       # Clock period in ticks
system.cpu.dtb.fetch_hits                           0                       # ITB hits
system.cpu.dtb.fetch_misses                         0                       # ITB misses
system.cpu.dtb.fetch_acv                            0                       # ITB acv
system.cpu.dtb.fetch_accesses                       0                       # ITB accesses
system.cpu.dtb.read_hits                            2                       # DTB read hits
system.cpu.dtb.read_misses                          0                       # DTB read misses
system.cpu.dtb.read_acv                             0                       # DTB read access violations
system.cpu.dtb.read_accesses                        2                       # DTB read accesses
system.cpu.dtb.write_hits                           0                       # DTB write hits
system.cpu.dtb.write_misses                         0                       # DTB write misses
system.cpu.dtb.write_acv                            0                       # DTB write access violations
system.cpu.dtb.write_accesses                       0                       # DTB write accesses
system.cpu.dtb.data_hits                            2                       # DTB hits
system.cpu.dtb.data_misses                          0                       # DTB misses
system.cpu.dtb.data_acv                             0                       # DTB access violations
system.cpu.dtb.data_accesses                        2                       # DTB accesses
system.cpu.itb.fetch_hits                           3                       # ITB hits
system.cpu.itb.fetch_misses                         0                       # ITB misses
system.cpu.itb.fetch_acv                            0                       # ITB acv
system.cpu.itb.fetch_accesses                       3                       # ITB accesses
system.cpu.itb.read_hits                            0                       # DTB read hits
system.cpu.itb.read_misses                          0                       # DTB read misses
system.cpu.itb.read_acv                             0                       # DTB read access violations
system.cpu.itb.read_accesses                        0                       # DTB read accesses
system.cpu.itb.write_hits                           0                       # DTB write hits
system.cpu.itb.write_misses                         0                       # DTB write misses
system.cpu.itb.write_acv                            0                       # DTB write access violations
system.cpu.itb.write_accesses                       0                       # DTB write accesses
system.cpu.itb.data_hits                            0                       # DTB hits
system.cpu.itb.data_misses                          0                       # DTB misses
system.cpu.itb.data_acv                             0                       # DTB access violations
system.cpu.itb.data_accesses                        0                       # DTB accesses
system.cpu.workload.num_syscalls                    6                       # Number of system calls
system.cpu.pwrStateResidencyTicks::ON    4154132460915                       # Cumulative time (in ticks) in various power states
system.cpu.numCycles                              492                       # number of cpu cycles simulated
system.cpu.numWorkItemsStarted                      0                       # number of work items this cpu started
system.cpu.numWorkItemsCompleted                    0                       # number of work items this cpu completed
system.cpu.fetch.icacheStallCycles                 18                       # Number of cycles fetch is stalled on an Icache miss
system.cpu.fetch.Insts                             10                       # Number of instructions fetch has processed
system.cpu.fetch.Branches                           1                       # Number of branches that fetch encountered
system.cpu.fetch.Cycles                             2                       # Number of cycles fetch has run and was not squashing or blocked
system.cpu.fetch.SquashCycles                       3                       # Number of cycles fetch has spent squashing
system.cpu.fetch.PendingDrainCycles                 3                       # Number of cycles fetch has spent waiting on pipes to drain
system.cpu.fetch.CacheLines                         3                       # Number of cache lines fetched
[...]
system.switch_cpus_1.iq.int_inst_queue_wakeup_accesses    507802210                       # Number of integer instruction queue wakeup accesses
system.switch_cpus_1.iq.fp_inst_queue_reads    319746280                       # Number of floating instruction queue reads
system.switch_cpus_1.iq.fp_inst_queue_writes    206811947                       # Number of floating instruction queue writes
system.switch_cpus_1.iq.fp_inst_queue_wakeup_accesses    142803611                       # Number of floating instruction queue wakeup accesses
system.switch_cpus_1.iq.int_alu_accesses    549973019                       # Number of integer alu accesses
system.switch_cpus_1.iq.fp_alu_accesses     163554105                       # Number of floating point alu accesses
system.switch_cpus_1.iew.lsq.thread0.forwLoads      6294673                       # Number of loads that had data forwarded from stores
system.switch_cpus_1.iew.lsq.thread0.invAddrLoads            0                       # Number of loads ignored due to an invalid address
system.switch_cpus_1.iew.lsq.thread0.squashedLoads     56619750                       # Number of loads squashed
system.switch_cpus_1.iew.lsq.thread0.ignoredResponses        42864                       # Number of memory responses ignored because the instruction is squashed
system.switch_cpus_1.iew.lsq.thread0.memOrderViolation        24643                       # Number of memory ordering violations
system.switch_cpus_1.iew.lsq.thread0.squashedStores     19635485                       # Number of stores squashed
system.switch_cpus_1.iew.lsq.thread0.invAddrSwpfs            0                       # Number of software prefetches ignored due to an invalid address
system.switch_cpus_1.iew.lsq.thread0.blockedLoads            0                       # Number of blocked loads due to partial load-store forwarding
system.switch_cpus_1.iew.lsq.thread0.rescheduledLoads        13161                       # Number of loads that were rescheduled
system.switch_cpus_1.iew.lsq.thread0.cacheBlocked     32145893                       # Number of times an access to memory failed due to the cache being blocked
system.switch_cpus_1.iew.iewIdleCycles              0                       # Number of cycles IEW is idle
system.switch_cpus_1.iew.iewSquashCycles      4237368                       # Number of cycles IEW is squashing
system.switch_cpus_1.iew.iewBlockCycles     516338393                       # Number of cycles IEW is blocking
system.switch_cpus_1.iew.iewUnblockCycles    208928294                       # Number of cycles IEW is unblocking
system.switch_cpus_1.iew.iewDispatchedInsts    749393397                       # Number of instructions dispatched to IQ
system.switch_cpus_1.iew.iewDispSquashedInsts       476527                       # Number of squashed instructions skipped by dispatch
system.switch_cpus_1.iew.iewDispLoadInsts    156234756                       # Number of dispatched load instructions
system.switch_cpus_1.iew.iewDispStoreInsts     50621326                       # Number of dispatched store instructions
system.switch_cpus_1.iew.iewDispNonSpecInsts          532                       # Number of dispatched non-speculative instructions
system.switch_cpus_1.iew.iewIQFullEvents      2661478                       # Number of times the IQ has become full, causing a stall
system.switch_cpus_1.iew.iewLSQFullEvents    204802968                       # Number of times the LSQ has become full, causing a stall
system.switch_cpus_1.iew.memOrderViolationEvents        24643                       # Number of memory order violations
system.switch_cpus_1.iew.predictedTakenIncorrect      2280502                       # Number of branches that were predicted taken incorrectly
system.switch_cpus_1.iew.predictedNotTakenIncorrect      1689188                       # Number of branches that were predicted not taken incorrectly
system.switch_cpus_1.iew.branchMispredicts      3969690                       # Number of branch mispredicts detected at execute
system.switch_cpus_1.iew.iewExecutedInsts    691568103                       # Number of executed instructions
system.switch_cpus_1.iew.iewExecLoadInsts    172849328                       # Number of load instructions executed
system.switch_cpus_1.iew.iewExecSquashedInsts      5062290                       # Number of squashed instructions skipped in execute
system.switch_cpus_1.iew.exec_swp                   0                       # number of swp insts executed
system.switch_cpus_1.iew.exec_nop             4581240                       # number of nop insts executed
system.switch_cpus_1.iew.exec_refs          213951379                       # number of memory reference insts executed
system.switch_cpus_1.iew.exec_branches       88896863                       # Number of branches executed
system.switch_cpus_1.iew.exec_stores         41102051                       # Number of stores executed
system.switch_cpus_1.iew.exec_rate           0.354511                       # Inst execution rate
system.switch_cpus_1.iew.wb_sent            655957701                       # cumulative count of insts sent to commit
system.switch_cpus_1.iew.wb_count           650605821                       # cumulative count of insts written-back
system.switch_cpus_1.iew.wb_producers       392560026                       # num instructions producing a value
system.switch_cpus_1.iew.wb_consumers       489751232                       # num instructions consuming a value
system.switch_cpus_1.iew.wb_rate             0.333513                       # insts written-back per cycle
system.switch_cpus_1.iew.wb_fanout           0.801550                       # average fanout of values written-back
system.switch_cpus_1.commit.commitSquashedInsts    234905152                       # The number of squashed insts skipped by commit
system.switch_cpus_1.commit.commitNonSpecStalls          505                       # The number of times commit has been forced to stall to communicate backwards
system.switch_cpus_1.commit.branchMispredicts      3242482                       # The number of times a branch was mispredicted
system.switch_cpus_1.commit.committed_per_cycle::samples   1917029812                       # Number of insts commited each cycle
system.switch_cpus_1.commit.committed_per_cycle::mean     0.262351                       # Number of insts commited each cycle
system.switch_cpus_1.commit.committed_per_cycle::stdev     1.323738                       # Number of insts commited each cycle
system.switch_cpus_1.commit.committed_per_cycle::underflows            0      0.00%      0.00% # Number of insts commited each cycle
system.switch_cpus_1.commit.committed_per_cycle::0   1817922297     94.83%     94.83% # Number of insts commited each cycle
system.switch_cpus_1.commit.committed_per_cycle::1     24086514      1.26%     96.09% # Number of insts commited each cycle
system.switch_cpus_1.commit.committed_per_cycle::2     10450137      0.55%     96.63% # Number of insts commited each cycle
system.switch_cpus_1.commit.committed_per_cycle::3      4995114      0.26%     96.89% # Number of insts commited each cycle
system.switch_cpus_1.commit.committed_per_cycle::4      3290160      0.17%     97.06% # Number of insts commited each cycle
system.switch_cpus_1.commit.committed_per_cycle::5      4785347      0.25%     97.31% # Number of insts commited each cycle
system.switch_cpus_1.commit.committed_per_cycle::6      1941389      0.10%     97.41% # Number of insts commited each cycle
system.switch_cpus_1.commit.committed_per_cycle::7      2243602      0.12%     97.53% # Number of insts commited each cycle
system.switch_cpus_1.commit.committed_per_cycle::8     47315252      2.47%    100.00% # Number of insts commited each cycle
system.switch_cpus_1.commit.committed_per_cycle::overflows            0      0.00%    100.00% # Number of insts commited each cycle
system.switch_cpus_1.commit.committed_per_cycle::min_value            0                       # Number of insts commited each cycle
system.switch_cpus_1.commit.committed_per_cycle::max_value            8                       # Number of insts commited each cycle
system.switch_cpus_1.commit.committed_per_cycle::total   1917029812                       # Number of insts commited each cycle
system.switch_cpus_1.commit.committedInsts    502935069                       # Number of instructions committed
system.switch_cpus_1.commit.committedOps    502935069                       # Number of ops (including micro ops) committed
system.switch_cpus_1.commit.swp_count               0                       # Number of s/w prefetches committed
system.switch_cpus_1.commit.refs            130600804                       # Number of memory references committed
system.switch_cpus_1.commit.loads            99614976                       # Number of loads committed
system.switch_cpus_1.commit.membars               252                       # Number of memory barriers committed
system.switch_cpus_1.commit.branches         71232736                       # Number of branches committed
system.switch_cpus_1.commit.fp_insts        124074724                       # Number of committed floating point instructions.
system.switch_cpus_1.commit.int_insts       424409040                       # Number of committed integer instructions.
system.switch_cpus_1.commit.function_calls      1305410                       # Number of function calls committed.
system.switch_cpus_1.commit.op_class_0::No_OpClass      2935069      0.58%      0.58% # Class of committed instruction
system.switch_cpus_1.commit.op_class_0::IntAlu    294756549     58.61%     59.19% # Class of committed instruction
system.switch_cpus_1.commit.op_class_0::IntMult       416105      0.08%     59.27% # Class of committed instruction
system.switch_cpus_1.commit.op_class_0::IntDiv            0      0.00%     59.27% # Class of committed instruction
system.switch_cpus_1.commit.op_class_0::FloatAdd     45306533      9.01%     68.28% # Class of committed instruction
system.switch_cpus_1.commit.op_class_0::FloatCmp     25379621      5.05%     73.33% # Class of committed instruction
system.switch_cpus_1.commit.op_class_0::FloatCvt         3651      0.00%     73.33% # Class of committed instruction
system.switch_cpus_1.commit.op_class_0::FloatMult      2251630      0.45%     73.78% # Class of committed instruction
system.switch_cpus_1.commit.op_class_0::FloatMultAcc            0      0.00%     73.78% # Class of committed instruction
system.switch_cpus_1.commit.op_class_0::FloatDiv      1284855      0.26%     74.03% # Class of committed instruction
system.switch_cpus_1.commit.op_class_0::FloatMisc            0      0.00%     74.03% # Class of committed instruction
system.switch_cpus_1.commit.op_class_0::FloatSqrt            0      0.00%     74.03% # Class of committed instruction
system.switch_cpus_1.commit.op_class_0::SimdAdd            0      0.00%     74.03% # Class of committed instruction
system.switch_cpus_1.commit.op_class_0::SimdAddAcc            0      0.00%     74.03% # Class of committed instruction
system.switch_cpus_1.commit.op_class_0::SimdAlu            0      0.00%     74.03% # Class of committed instruction
system.switch_cpus_1.commit.op_class_0::SimdCmp            0      0.00%     74.03% # Class of committed instruction
system.switch_cpus_1.commit.op_class_0::SimdCvt            0      0.00%     74.03% # Class of committed instruction
system.switch_cpus_1.commit.op_class_0::SimdMisc            0      0.00%     74.03% # Class of committed instruction
system.switch_cpus_1.commit.op_class_0::SimdMult            0      0.00%     74.03% # Class of committed instruction
system.switch_cpus_1.commit.op_class_0::SimdMultAcc            0      0.00%     74.03% # Class of committed instruction
system.switch_cpus_1.commit.op_class_0::SimdShift            0      0.00%     74.03% # Class of committed instruction
system.switch_cpus_1.commit.op_class_0::SimdShiftAcc            0      0.00%     74.03% # Class of committed instruction
system.switch_cpus_1.commit.op_class_0::SimdSqrt            0      0.00%     74.03% # Class of committed instruction
system.switch_cpus_1.commit.op_class_0::SimdFloatAdd            0      0.00%     74.03% # Class of committed instruction
system.switch_cpus_1.commit.op_class_0::SimdFloatAlu            0      0.00%     74.03% # Class of committed instruction
system.switch_cpus_1.commit.op_class_0::SimdFloatCmp            0      0.00%     74.03% # Class of committed instruction
system.switch_cpus_1.commit.op_class_0::SimdFloatCvt            0      0.00%     74.03% # Class of committed instruction
system.switch_cpus_1.commit.op_class_0::SimdFloatDiv            0      0.00%     74.03% # Class of committed instruction
system.switch_cpus_1.commit.op_class_0::SimdFloatMisc            0      0.00%     74.03% # Class of committed instruction
system.switch_cpus_1.commit.op_class_0::SimdFloatMult            0      0.00%     74.03% # Class of committed instruction
system.switch_cpus_1.commit.op_class_0::SimdFloatMultAcc            0      0.00%     74.03% # Class of committed instruction
system.switch_cpus_1.commit.op_class_0::SimdFloatSqrt            0      0.00%     74.03% # Class of committed instruction
system.switch_cpus_1.commit.op_class_0::MemRead     52990874     10.54%     84.57% # Class of committed instruction
system.switch_cpus_1.commit.op_class_0::MemWrite     27761748      5.52%     90.09% # Class of committed instruction
system.switch_cpus_1.commit.op_class_0::FloatMemRead     46624354      9.27%     99.36% # Class of committed instruction
system.switch_cpus_1.commit.op_class_0::FloatMemWrite      3224080      0.64%    100.00% # Class of committed instruction
system.switch_cpus_1.commit.op_class_0::IprAccess            0      0.00%    100.00% # Class of committed instruction
system.switch_cpus_1.commit.op_class_0::InstPrefetch            0      0.00%    100.00% # Class of committed instruction
system.switch_cpus_1.commit.op_class_0::total    502935069                       # Class of committed instruction
system.switch_cpus_1.commit.bw_lim_events     47315252                       # number cycles where commit BW limit reached
system.switch_cpus_1.rob.rob_reads         2594867249                       # The number of ROB reads
system.switch_cpus_1.rob.rob_writes        1508451698                       # The number of ROB writes
system.switch_cpus_1.timesIdled                  5456                       # Number of times that the entire CPU went into an idle state and unscheduled itself
system.switch_cpus_1.idleCycles               1043728                       # Total number of cycles that the CPU has spent unscheduled due to idling
system.switch_cpus_1.committedInsts         500000000                       # Number of Instructions Simulated
system.switch_cpus_1.committedOps           500000000                       # Number of Ops (including micro ops) Simulated
system.switch_cpus_1.cpi                     3.901528                       # CPI: Cycles Per Instruction
system.switch_cpus_1.cpi_total               3.901528                       # CPI: Total CPI of All Threads
system.switch_cpus_1.ipc                     0.256310                       # IPC: Instructions Per Cycle
system.switch_cpus_1.ipc_total               0.256310                       # IPC: Total IPC of All Threads
system.switch_cpus_1.int_regfile_reads      904987788                       # number of integer regfile reads
system.switch_cpus_1.int_regfile_writes     413254026                       # number of integer regfile writes
system.switch_cpus_1.fp_regfile_reads       143563170                       # number of floating regfile reads
system.switch_cpus_1.fp_regfile_writes      111604763                       # number of floating regfile writes
system.switch_cpus_1.misc_regfile_reads           600                       # number of misc regfile reads
system.switch_cpus_1.misc_regfile_writes          504                       # number of misc regfile writes
system.tol3bus.snoop_filter.tot_requests     65357578                       # Total number of requests made to the snoop filter.
system.tol3bus.snoop_filter.hit_single_requests     32676572                       # Number of requests hitting in the snoop filter with a single holder of the requested data.
system.tol3bus.snoop_filter.hit_multi_requests            0                       # Number of requests hitting in the snoop filter with multiple (>1) holders of the requested data.
system.tol3bus.snoop_filter.tot_snoops           8252                       # Total number of snoops made to the snoop filter.
system.tol3bus.snoop_filter.hit_single_snoops         8252                       # Number of snoops hitting in the snoop filter with a single holder of the requested data.
system.tol3bus.snoop_filter.hit_multi_snoops            0                       # Number of snoops hitting in the snoop filter with multiple (>1) holders of the requested data.
system.tol3bus.pwrStateResidencyTicks::UNDEFINED 74184105042261                       # Cumulative time (in ticks) in various power states
system.tol3bus.trans_dist::ReadResp          24564470                       # Transaction distribution
system.tol3bus.trans_dist::WritebackDirty     22258607                       # Transaction distribution
system.tol3bus.trans_dist::CleanEvict        29724228                       # Transaction distribution
system.tol3bus.trans_dist::UpgradeReq              35                       # Transaction distribution
system.tol3bus.trans_dist::UpgradeResp             35                       # Transaction distribution
system.tol3bus.trans_dist::ReadExReq          8116536                       # Transaction distribution
system.tol3bus.trans_dist::ReadExResp         8116536                       # Transaction distribution
system.tol3bus.trans_dist::ReadSharedReq     24564470                       # Transaction distribution
system.tol3bus.pkt_count_system.cpu.l2.mem_side::system.l3.cpu_side     98038619                       # Packet count per connected master and slave (bytes)
system.tol3bus.pkt_size_system.cpu.l2.mem_side::system.l3.cpu_side   3110352512                       # Cumulative packet size per connected master and slave (bytes)
system.tol3bus.snoops                        19306298                       # Total snoops (count)
system.tol3bus.snoopTraffic                 405782720                       # Total snoop traffic (bytes)
system.tol3bus.snoop_fanout::samples         51987339                       # Request fanout histogram
system.tol3bus.snoop_fanout::mean            0.000159                       # Request fanout histogram
system.tol3bus.snoop_fanout::stdev           0.012598                       # Request fanout histogram
system.tol3bus.snoop_fanout::underflows             0      0.00%      0.00% # Request fanout histogram
system.tol3bus.snoop_fanout::0               51979087     99.98%     99.98% # Request fanout histogram
system.tol3bus.snoop_fanout::1                   8252      0.02%    100.00% # Request fanout histogram
system.tol3bus.snoop_fanout::overflows              0      0.00%    100.00% # Request fanout histogram
system.tol3bus.snoop_fanout::min_value              0                       # Request fanout histogram
system.tol3bus.snoop_fanout::max_value              1                       # Request fanout histogram
system.tol3bus.snoop_fanout::total           51987339                       # Request fanout histogram
system.tol3bus.reqLayer0.occupancy        27064851390                       # Layer occupancy (ticks)
system.tol3bus.reqLayer0.utilization              0.7                       # Layer utilization (%)
system.tol3bus.respLayer0.occupancy       21765561651                       # Layer occupancy (ticks)
system.tol3bus.respLayer0.utilization             0.5                       # Layer utilization (%)

---------- End Simulation Statistics   ----------
