
---------- Begin Simulation Statistics ----------
sim_seconds                                  1.169523                       # Number of seconds simulated
sim_ticks                                1169522749224                       # Number of ticks simulated
final_tick                               18822864140154                       # Number of ticks from beginning of simulation (restored from checkpoints and never reset)
sim_freq                                 1000000000000                       # Frequency of simulated ticks
host_inst_rate                                 353867                       # Simulator instruction rate (inst/s)
host_op_rate                                   353867                       # Simulator op (including micro ops) rate (op/s)
host_tick_rate                              275903895                       # Simulator tick rate (ticks/s)
host_mem_usage                                2395912                       # Number of bytes of host memory used
host_seconds                                  4238.88                       # Real time elapsed on the host
sim_insts                                  1500000005                       # Number of instructions simulated
sim_ops                                    1500000005                       # Number of ops (including micro ops) simulated
system.voltage_domain.voltage                       1                       # Voltage in Volts
system.clk_domain.clock                          1000                       # Clock period in ticks
system.mem_ctrls0.pwrStateResidencyTicks::UNDEFINED 18822864140154                       # Cumulative time (in ticks) in various power states
system.mem_ctrls0.bytes_read::cpu.inst            192                       # Number of bytes read from this memory
system.mem_ctrls0.bytes_read::switch_cpus.inst       165568                       # Number of bytes read from this memory
system.mem_ctrls0.bytes_read::switch_cpus.data      7745408                       # Number of bytes read from this memory
system.mem_ctrls0.bytes_read::switch_cpus_1.inst        50176                       # Number of bytes read from this memory
system.mem_ctrls0.bytes_read::switch_cpus_1.data      2549568                       # Number of bytes read from this memory
system.mem_ctrls0.bytes_read::total          10510912                       # Number of bytes read from this memory
system.mem_ctrls0.bytes_inst_read::cpu.inst          192                       # Number of instructions bytes read from this memory
system.mem_ctrls0.bytes_inst_read::switch_cpus.inst       165568                       # Number of instructions bytes read from this memory
system.mem_ctrls0.bytes_inst_read::switch_cpus_1.inst        50176                       # Number of instructions bytes read from this memory
system.mem_ctrls0.bytes_inst_read::total       215936                       # Number of instructions bytes read from this memory
system.mem_ctrls0.bytes_written::writebacks      6377344                       # Number of bytes written to this memory
system.mem_ctrls0.bytes_written::total        6377344                       # Number of bytes written to this memory
system.mem_ctrls0.num_reads::cpu.inst               3                       # Number of read requests responded to by this memory
system.mem_ctrls0.num_reads::switch_cpus.inst         2587                       # Number of read requests responded to by this memory
system.mem_ctrls0.num_reads::switch_cpus.data       121022                       # Number of read requests responded to by this memory
system.mem_ctrls0.num_reads::switch_cpus_1.inst          784                       # Number of read requests responded to by this memory
system.mem_ctrls0.num_reads::switch_cpus_1.data        39837                       # Number of read requests responded to by this memory
system.mem_ctrls0.num_reads::total             164233                       # Number of read requests responded to by this memory
system.mem_ctrls0.num_writes::writebacks        99646                       # Number of write requests responded to by this memory
system.mem_ctrls0.num_writes::total             99646                       # Number of write requests responded to by this memory
system.mem_ctrls0.bw_read::cpu.inst               164                       # Total read bandwidth from this memory (bytes/s)
system.mem_ctrls0.bw_read::switch_cpus.inst       141569                       # Total read bandwidth from this memory (bytes/s)
system.mem_ctrls0.bw_read::switch_cpus.data      6622708                       # Total read bandwidth from this memory (bytes/s)
system.mem_ctrls0.bw_read::switch_cpus_1.inst        42903                       # Total read bandwidth from this memory (bytes/s)
system.mem_ctrls0.bw_read::switch_cpus_1.data      2180007                       # Total read bandwidth from this memory (bytes/s)
system.mem_ctrls0.bw_read::total              8987351                       # Total read bandwidth from this memory (bytes/s)
system.mem_ctrls0.bw_inst_read::cpu.inst          164                       # Instruction read bandwidth from this memory (bytes/s)
system.mem_ctrls0.bw_inst_read::switch_cpus.inst       141569                       # Instruction read bandwidth from this memory (bytes/s)
system.mem_ctrls0.bw_inst_read::switch_cpus_1.inst        42903                       # Instruction read bandwidth from this memory (bytes/s)
system.mem_ctrls0.bw_inst_read::total          184636                       # Instruction read bandwidth from this memory (bytes/s)
system.mem_ctrls0.bw_write::writebacks        5452946                       # Write bandwidth from this memory (bytes/s)
system.mem_ctrls0.bw_write::total             5452946                       # Write bandwidth from this memory (bytes/s)
system.mem_ctrls0.bw_total::writebacks        5452946                       # Total bandwidth to/from this memory (bytes/s)
system.mem_ctrls0.bw_total::cpu.inst              164                       # Total bandwidth to/from this memory (bytes/s)
system.mem_ctrls0.bw_total::switch_cpus.inst       141569                       # Total bandwidth to/from this memory (bytes/s)
system.mem_ctrls0.bw_total::switch_cpus.data      6622708                       # Total bandwidth to/from this memory (bytes/s)
system.mem_ctrls0.bw_total::switch_cpus_1.inst        42903                       # Total bandwidth to/from this memory (bytes/s)
system.mem_ctrls0.bw_total::switch_cpus_1.data      2180007                       # Total bandwidth to/from this memory (bytes/s)
system.mem_ctrls0.bw_total::total            14440297                       # Total bandwidth to/from this memory (bytes/s)
system.mem_ctrls0.readReqs                     164233                       # Number of read requests accepted
system.mem_ctrls0.writeReqs                     99646                       # Number of write requests accepted
system.mem_ctrls0.readBursts                   164233                       # Number of DRAM read bursts, including those serviced by the write queue
system.mem_ctrls0.writeBursts                   99646                       # Number of DRAM write bursts, including those merged in the write queue
system.mem_ctrls0.bytesReadDRAM              10507264                       # Total number of bytes read from DRAM
system.mem_ctrls0.bytesReadWrQ                   3648                       # Total number of bytes read from write queue
system.mem_ctrls0.bytesWritten                6376320                       # Total number of bytes written to DRAM
system.mem_ctrls0.bytesReadSys               10510912                       # Total read bytes from the system interface side
system.mem_ctrls0.bytesWrittenSys             6377344                       # Total written bytes from the system interface side
system.mem_ctrls0.servicedByWrQ                    57                       # Number of DRAM read bursts serviced by the write queue
system.mem_ctrls0.mergedWrBursts                    0                       # Number of DRAM write bursts merged with an existing one
system.mem_ctrls0.neitherReadNorWriteReqs            0                       # Number of requests that are neither read nor write
system.mem_ctrls0.perBankRdBursts::0            10092                       # Per bank write bursts
system.mem_ctrls0.perBankRdBursts::1            10372                       # Per bank write bursts
system.mem_ctrls0.perBankRdBursts::2            10533                       # Per bank write bursts
system.mem_ctrls0.perBankRdBursts::3            10912                       # Per bank write bursts
system.mem_ctrls0.perBankRdBursts::4            10787                       # Per bank write bursts
system.mem_ctrls0.perBankRdBursts::5            10285                       # Per bank write bursts
system.mem_ctrls0.perBankRdBursts::6             9780                       # Per bank write bursts
system.mem_ctrls0.perBankRdBursts::7            10013                       # Per bank write bursts
system.mem_ctrls0.perBankRdBursts::8            10643                       # Per bank write bursts
system.mem_ctrls0.perBankRdBursts::9            10562                       # Per bank write bursts
system.mem_ctrls0.perBankRdBursts::10           10062                       # Per bank write bursts
system.mem_ctrls0.perBankRdBursts::11           10298                       # Per bank write bursts
system.mem_ctrls0.perBankRdBursts::12           10083                       # Per bank write bursts
system.mem_ctrls0.perBankRdBursts::13           10022                       # Per bank write bursts
system.mem_ctrls0.perBankRdBursts::14            9960                       # Per bank write bursts
system.mem_ctrls0.perBankRdBursts::15            9772                       # Per bank write bursts
system.mem_ctrls0.perBankWrBursts::0             6420                       # Per bank write bursts
system.mem_ctrls0.perBankWrBursts::1             6547                       # Per bank write bursts
system.mem_ctrls0.perBankWrBursts::2             6252                       # Per bank write bursts
system.mem_ctrls0.perBankWrBursts::3             6469                       # Per bank write bursts
system.mem_ctrls0.perBankWrBursts::4             6251                       # Per bank write bursts
system.mem_ctrls0.perBankWrBursts::5             6164                       # Per bank write bursts
system.mem_ctrls0.perBankWrBursts::6             5874                       # Per bank write bursts
system.mem_ctrls0.perBankWrBursts::7             5948                       # Per bank write bursts
system.mem_ctrls0.perBankWrBursts::8             6088                       # Per bank write bursts
system.mem_ctrls0.perBankWrBursts::9             6119                       # Per bank write bursts
system.mem_ctrls0.perBankWrBursts::10            6327                       # Per bank write bursts
system.mem_ctrls0.perBankWrBursts::11            6549                       # Per bank write bursts
system.mem_ctrls0.perBankWrBursts::12            6307                       # Per bank write bursts
system.mem_ctrls0.perBankWrBursts::13            6126                       # Per bank write bursts
system.mem_ctrls0.perBankWrBursts::14            6034                       # Per bank write bursts
system.mem_ctrls0.perBankWrBursts::15            6155                       # Per bank write bursts
system.mem_ctrls0.numRdRetry                        0                       # Number of times read queue was full causing retry
system.mem_ctrls0.numWrRetry                        0                       # Number of times write queue was full causing retry
system.mem_ctrls0.totGap                 1169498732931                       # Total gap between requests
system.mem_ctrls0.readPktSize::0                    0                       # Read request sizes (log2)
system.mem_ctrls0.readPktSize::1                    0                       # Read request sizes (log2)
system.mem_ctrls0.readPktSize::2                    0                       # Read request sizes (log2)
system.mem_ctrls0.readPktSize::3                    0                       # Read request sizes (log2)
system.mem_ctrls0.readPktSize::4                    0                       # Read request sizes (log2)
system.mem_ctrls0.readPktSize::5                    0                       # Read request sizes (log2)
system.mem_ctrls0.readPktSize::6               164233                       # Read request sizes (log2)
system.mem_ctrls0.writePktSize::0                   0                       # Write request sizes (log2)
system.mem_ctrls0.writePktSize::1                   0                       # Write request sizes (log2)
system.mem_ctrls0.writePktSize::2                   0                       # Write request sizes (log2)
system.mem_ctrls0.writePktSize::3                   0                       # Write request sizes (log2)
system.mem_ctrls0.writePktSize::4                   0                       # Write request sizes (log2)
system.mem_ctrls0.writePktSize::5                   0                       # Write request sizes (log2)
system.mem_ctrls0.writePktSize::6               99646                       # Write request sizes (log2)
system.mem_ctrls0.rdQLenPdf::0                 160645                       # What read queue length does an incoming req see
system.mem_ctrls0.rdQLenPdf::1                   3459                       # What read queue length does an incoming req see
system.mem_ctrls0.rdQLenPdf::2                     69                       # What read queue length does an incoming req see
system.mem_ctrls0.rdQLenPdf::3                      1                       # What read queue length does an incoming req see
system.mem_ctrls0.rdQLenPdf::4                      1                       # What read queue length does an incoming req see
system.mem_ctrls0.rdQLenPdf::5                      1                       # What read queue length does an incoming req see
system.mem_ctrls0.rdQLenPdf::6                      0                       # What read queue length does an incoming req see
system.mem_ctrls0.rdQLenPdf::7                      0                       # What read queue length does an incoming req see
system.mem_ctrls0.rdQLenPdf::8                      0                       # What read queue length does an incoming req see
system.mem_ctrls0.rdQLenPdf::9                      0                       # What read queue length does an incoming req see
system.mem_ctrls0.rdQLenPdf::10                     0                       # What read queue length does an incoming req see
system.mem_ctrls0.rdQLenPdf::11                     0                       # What read queue length does an incoming req see
system.mem_ctrls0.rdQLenPdf::12                     0                       # What read queue length does an incoming req see
system.mem_ctrls0.rdQLenPdf::13                     0                       # What read queue length does an incoming req see
system.mem_ctrls0.rdQLenPdf::14                     0                       # What read queue length does an incoming req see
system.mem_ctrls0.rdQLenPdf::15                     0                       # What read queue length does an incoming req see
system.mem_ctrls0.rdQLenPdf::16                     0                       # What read queue length does an incoming req see
system.mem_ctrls0.rdQLenPdf::17                     0                       # What read queue length does an incoming req see
system.mem_ctrls0.rdQLenPdf::18                     0                       # What read queue length does an incoming req see
system.mem_ctrls0.rdQLenPdf::19                     0                       # What read queue length does an incoming req see
system.mem_ctrls0.rdQLenPdf::20                     0                       # What read queue length does an incoming req see
system.mem_ctrls0.rdQLenPdf::21                     0                       # What read queue length does an incoming req see
system.mem_ctrls0.rdQLenPdf::22                     0                       # What read queue length does an incoming req see
system.mem_ctrls0.rdQLenPdf::23                     0                       # What read queue length does an incoming req see
system.mem_ctrls0.rdQLenPdf::24                     0                       # What read queue length does an incoming req see
system.mem_ctrls0.rdQLenPdf::25                     0                       # What read queue length does an incoming req see
system.mem_ctrls0.rdQLenPdf::26                     0                       # What read queue length does an incoming req see
system.mem_ctrls0.rdQLenPdf::27                     0                       # What read queue length does an incoming req see
system.mem_ctrls0.rdQLenPdf::28                     0                       # What read queue length does an incoming req see
system.mem_ctrls0.rdQLenPdf::29                     0                       # What read queue length does an incoming req see
system.mem_ctrls0.rdQLenPdf::30                     0                       # What read queue length does an incoming req see
system.mem_ctrls0.rdQLenPdf::31                     0                       # What read queue length does an incoming req see
system.mem_ctrls0.wrQLenPdf::0                      2                       # What write queue length does an incoming req see
system.mem_ctrls0.wrQLenPdf::1                      2                       # What write queue length does an incoming req see
system.mem_ctrls0.wrQLenPdf::2                      2                       # What write queue length does an incoming req see
system.mem_ctrls0.wrQLenPdf::3                      2                       # What write queue length does an incoming req see
system.mem_ctrls0.wrQLenPdf::4                      2                       # What write queue length does an incoming req see
system.mem_ctrls0.wrQLenPdf::5                      2                       # What write queue length does an incoming req see
system.mem_ctrls0.wrQLenPdf::6                      2                       # What write queue length does an incoming req see
system.mem_ctrls0.wrQLenPdf::7                      2                       # What write queue length does an incoming req see
system.mem_ctrls0.wrQLenPdf::8                      2                       # What write queue length does an incoming req see
system.mem_ctrls0.wrQLenPdf::9                      2                       # What write queue length does an incoming req see
system.mem_ctrls0.wrQLenPdf::10                     2                       # What write queue length does an incoming req see
system.mem_ctrls0.wrQLenPdf::11                     2                       # What write queue length does an incoming req see
system.mem_ctrls0.wrQLenPdf::12                     2                       # What write queue length does an incoming req see
system.mem_ctrls0.wrQLenPdf::13                     2                       # What write queue length does an incoming req see
system.mem_ctrls0.wrQLenPdf::14                     2                       # What write queue length does an incoming req see
system.mem_ctrls0.wrQLenPdf::15                  4480                       # What write queue length does an incoming req see
system.mem_ctrls0.wrQLenPdf::16                  4534                       # What write queue length does an incoming req see
system.mem_ctrls0.wrQLenPdf::17                  5545                       # What write queue length does an incoming req see
system.mem_ctrls0.wrQLenPdf::18                  5642                       # What write queue length does an incoming req see
system.mem_ctrls0.wrQLenPdf::19                  5652                       # What write queue length does an incoming req see
system.mem_ctrls0.wrQLenPdf::20                  5651                       # What write queue length does an incoming req see
system.mem_ctrls0.wrQLenPdf::21                  5660                       # What write queue length does an incoming req see
system.mem_ctrls0.wrQLenPdf::22                  5670                       # What write queue length does an incoming req see
system.mem_ctrls0.wrQLenPdf::23                  5665                       # What write queue length does an incoming req see
system.mem_ctrls0.wrQLenPdf::24                  5652                       # What write queue length does an incoming req see
system.mem_ctrls0.wrQLenPdf::25                  5659                       # What write queue length does an incoming req see
system.mem_ctrls0.wrQLenPdf::26                  5656                       # What write queue length does an incoming req see
system.mem_ctrls0.wrQLenPdf::27                  5672                       # What write queue length does an incoming req see
system.mem_ctrls0.wrQLenPdf::28                  5669                       # What write queue length does an incoming req see
system.mem_ctrls0.wrQLenPdf::29                  5704                       # What write queue length does an incoming req see
system.mem_ctrls0.wrQLenPdf::30                  5672                       # What write queue length does an incoming req see
system.mem_ctrls0.wrQLenPdf::31                  5629                       # What write queue length does an incoming req see
system.mem_ctrls0.wrQLenPdf::32                  5627                       # What write queue length does an incoming req see
system.mem_ctrls0.wrQLenPdf::33                   124                       # What write queue length does an incoming req see
system.mem_ctrls0.wrQLenPdf::34                    28                       # What write queue length does an incoming req see
system.mem_ctrls0.wrQLenPdf::35                    10                       # What write queue length does an incoming req see
system.mem_ctrls0.wrQLenPdf::36                     6                       # What write queue length does an incoming req see
system.mem_ctrls0.wrQLenPdf::37                     4                       # What write queue length does an incoming req see
system.mem_ctrls0.wrQLenPdf::38                     2                       # What write queue length does an incoming req see
system.mem_ctrls0.wrQLenPdf::39                     2                       # What write queue length does an incoming req see
system.mem_ctrls0.wrQLenPdf::40                     1                       # What write queue length does an incoming req see
system.mem_ctrls0.wrQLenPdf::41                     0                       # What write queue length does an incoming req see
system.mem_ctrls0.wrQLenPdf::42                     0                       # What write queue length does an incoming req see
system.mem_ctrls0.wrQLenPdf::43                     0                       # What write queue length does an incoming req see
system.mem_ctrls0.wrQLenPdf::44                     0                       # What write queue length does an incoming req see
system.mem_ctrls0.wrQLenPdf::45                     0                       # What write queue length does an incoming req see
system.mem_ctrls0.wrQLenPdf::46                     0                       # What write queue length does an incoming req see
system.mem_ctrls0.wrQLenPdf::47                     0                       # What write queue length does an incoming req see
system.mem_ctrls0.wrQLenPdf::48                     0                       # What write queue length does an incoming req see
system.mem_ctrls0.wrQLenPdf::49                     0                       # What write queue length does an incoming req see
system.mem_ctrls0.wrQLenPdf::50                     0                       # What write queue length does an incoming req see
system.mem_ctrls0.wrQLenPdf::51                     0                       # What write queue length does an incoming req see
system.mem_ctrls0.wrQLenPdf::52                     0                       # What write queue length does an incoming req see
system.mem_ctrls0.wrQLenPdf::53                     0                       # What write queue length does an incoming req see
system.mem_ctrls0.wrQLenPdf::54                     0                       # What write queue length does an incoming req see
system.mem_ctrls0.wrQLenPdf::55                     0                       # What write queue length does an incoming req see
system.mem_ctrls0.wrQLenPdf::56                     0                       # What write queue length does an incoming req see
system.mem_ctrls0.wrQLenPdf::57                     0                       # What write queue length does an incoming req see
system.mem_ctrls0.wrQLenPdf::58                     0                       # What write queue length does an incoming req see
system.mem_ctrls0.wrQLenPdf::59                     0                       # What write queue length does an incoming req see
system.mem_ctrls0.wrQLenPdf::60                     0                       # What write queue length does an incoming req see
system.mem_ctrls0.wrQLenPdf::61                     0                       # What write queue length does an incoming req see
system.mem_ctrls0.wrQLenPdf::62                     0                       # What write queue length does an incoming req see
system.mem_ctrls0.wrQLenPdf::63                     0                       # What write queue length does an incoming req see
system.mem_ctrls0.bytesPerActivate::samples       230190                       # Bytes accessed per row activation
system.mem_ctrls0.bytesPerActivate::mean    73.346297                       # Bytes accessed per row activation
system.mem_ctrls0.bytesPerActivate::gmean    68.567049                       # Bytes accessed per row activation
system.mem_ctrls0.bytesPerActivate::stdev    57.420818                       # Bytes accessed per row activation
system.mem_ctrls0.bytesPerActivate::0-127       212359     92.25%     92.25% # Bytes accessed per row activation
system.mem_ctrls0.bytesPerActivate::128-255        15721      6.83%     99.08% # Bytes accessed per row activation
system.mem_ctrls0.bytesPerActivate::256-383          856      0.37%     99.46% # Bytes accessed per row activation
system.mem_ctrls0.bytesPerActivate::384-511          289      0.13%     99.58% # Bytes accessed per row activation
system.mem_ctrls0.bytesPerActivate::512-639          192      0.08%     99.66% # Bytes accessed per row activation
system.mem_ctrls0.bytesPerActivate::640-767          141      0.06%     99.73% # Bytes accessed per row activation
system.mem_ctrls0.bytesPerActivate::768-895          115      0.05%     99.78% # Bytes accessed per row activation
system.mem_ctrls0.bytesPerActivate::896-1023           77      0.03%     99.81% # Bytes accessed per row activation
system.mem_ctrls0.bytesPerActivate::1024-1151          440      0.19%    100.00% # Bytes accessed per row activation
system.mem_ctrls0.bytesPerActivate::total       230190                       # Bytes accessed per row activation
system.mem_ctrls0.rdPerTurnAround::samples         5628                       # Reads before turning the bus around for writes
system.mem_ctrls0.rdPerTurnAround::mean     29.171286                       # Reads before turning the bus around for writes
system.mem_ctrls0.rdPerTurnAround::stdev   350.195440                       # Reads before turning the bus around for writes
system.mem_ctrls0.rdPerTurnAround::0-1023         5627     99.98%     99.98% # Reads before turning the bus around for writes
system.mem_ctrls0.rdPerTurnAround::25600-26623            1      0.02%    100.00% # Reads before turning the bus around for writes
system.mem_ctrls0.rdPerTurnAround::total         5628                       # Reads before turning the bus around for writes
system.mem_ctrls0.wrPerTurnAround::samples         5628                       # Writes before turning the bus around for reads
system.mem_ctrls0.wrPerTurnAround::mean     17.702559                       # Writes before turning the bus around for reads
system.mem_ctrls0.wrPerTurnAround::gmean    17.676524                       # Writes before turning the bus around for reads
system.mem_ctrls0.wrPerTurnAround::stdev     0.957984                       # Writes before turning the bus around for reads
system.mem_ctrls0.wrPerTurnAround::16            1110     19.72%     19.72% # Writes before turning the bus around for reads
system.mem_ctrls0.wrPerTurnAround::17              28      0.50%     20.22% # Writes before turning the bus around for reads
system.mem_ctrls0.wrPerTurnAround::18            4051     71.98%     92.20% # Writes before turning the bus around for reads
system.mem_ctrls0.wrPerTurnAround::19             367      6.52%     98.72% # Writes before turning the bus around for reads
system.mem_ctrls0.wrPerTurnAround::20              49      0.87%     99.59% # Writes before turning the bus around for reads
system.mem_ctrls0.wrPerTurnAround::21               9      0.16%     99.75% # Writes before turning the bus around for reads
system.mem_ctrls0.wrPerTurnAround::22               6      0.11%     99.86% # Writes before turning the bus around for reads
system.mem_ctrls0.wrPerTurnAround::23               1      0.02%     99.88% # Writes before turning the bus around for reads
system.mem_ctrls0.wrPerTurnAround::24               3      0.05%     99.93% # Writes before turning the bus around for reads
system.mem_ctrls0.wrPerTurnAround::25               1      0.02%     99.95% # Writes before turning the bus around for reads
system.mem_ctrls0.wrPerTurnAround::26               2      0.04%     99.98% # Writes before turning the bus around for reads
system.mem_ctrls0.wrPerTurnAround::30               1      0.02%    100.00% # Writes before turning the bus around for reads
system.mem_ctrls0.wrPerTurnAround::total         5628                       # Writes before turning the bus around for reads
system.mem_ctrls0.totQLat                 28752408213                       # Total ticks spent queuing
system.mem_ctrls0.totMemAccLat            31830708213                       # Total ticks spent from burst creation until serviced by the DRAM
system.mem_ctrls0.totBusLat                 820880000                       # Total ticks spent in databus transfers
system.mem_ctrls0.avgQLat                   175131.62                       # Average queueing delay per DRAM burst
system.mem_ctrls0.avgBusLat                   5000.00                       # Average bus latency per DRAM burst
system.mem_ctrls0.avgMemAccLat              193881.62                       # Average memory access latency per DRAM burst
system.mem_ctrls0.avgRdBW                        8.98                       # Average DRAM read bandwidth in MiByte/s
system.mem_ctrls0.avgWrBW                        5.45                       # Average achieved write bandwidth in MiByte/s
system.mem_ctrls0.avgRdBWSys                     8.99                       # Average system read bandwidth in MiByte/s
system.mem_ctrls0.avgWrBWSys                     5.45                       # Average system write bandwidth in MiByte/s
system.mem_ctrls0.peakBW                     12800.00                       # Theoretical peak bandwidth in MiByte/s
system.mem_ctrls0.busUtil                        0.11                       # Data bus utilization in percentage
system.mem_ctrls0.busUtilRead                    0.07                       # Data bus utilization in percentage for reads
system.mem_ctrls0.busUtilWrite                   0.04                       # Data bus utilization in percentage for writes
system.mem_ctrls0.avgRdQLen                      1.01                       # Average read queue length when enqueuing
system.mem_ctrls0.avgWrQLen                     21.07                       # Average write queue length when enqueuing
system.mem_ctrls0.readRowHits                   23064                       # Number of row buffer hits during reads
system.mem_ctrls0.writeRowHits                  10552                       # Number of row buffer hits during writes
system.mem_ctrls0.readRowHitRate                14.05                       # Row buffer hit rate for reads
system.mem_ctrls0.writeRowHitRate               10.59                       # Row buffer hit rate for writes
system.mem_ctrls0.avgGap                   4431950.75                       # Average gap between requests
system.mem_ctrls0.pageHitRate                   12.74                       # Row buffer hit rate, read and write combined
system.mem_ctrls0_0.actEnergy               826883400                       # Energy for activate commands per rank (pJ)
system.mem_ctrls0_0.preEnergy               439498950                       # Energy for precharge commands per rank (pJ)
system.mem_ctrls0_0.readEnergy              591006360                       # Energy for read commands per rank (pJ)
system.mem_ctrls0_0.writeEnergy             260608500                       # Energy for write commands per rank (pJ)
system.mem_ctrls0_0.refreshEnergy        60409277760.000015                       # Energy for refresh commands per rank (pJ)
system.mem_ctrls0_0.actBackEnergy         21153853680                       # Energy for active background per rank (pJ)
system.mem_ctrls0_0.preBackEnergy          3496208160                       # Energy for precharge background per rank (pJ)
system.mem_ctrls0_0.actPowerDownEnergy   120833259180                       # Energy for active power-down per rank (pJ)
system.mem_ctrls0_0.prePowerDownEnergy   100398540480                       # Energy for precharge power-down per rank (pJ)
system.mem_ctrls0_0.selfRefreshEnergy    154992595710                       # Energy for self refresh per rank (pJ)
system.mem_ctrls0_0.totalEnergy          463430961000                       # Total energy per rank (pJ)
system.mem_ctrls0_0.averagePower           396.256472                       # Core power per rank (mW)
system.mem_ctrls0_0.totalIdleTime        1113946740645                       # Total Idle time Per DRAM Rank
system.mem_ctrls0_0.memoryStateTime::IDLE   6975918445                       # Time in different power states
system.mem_ctrls0_0.memoryStateTime::REF  25708304000                       # Time in different power states
system.mem_ctrls0_0.memoryStateTime::SREF 587523257474                       # Time in different power states
system.mem_ctrls0_0.memoryStateTime::PRE_PDN 261454549145                       # Time in different power states
system.mem_ctrls0_0.memoryStateTime::ACT  22875212814                       # Time in different power states
system.mem_ctrls0_0.memoryStateTime::ACT_PDN 264985507346                       # Time in different power states
system.mem_ctrls0_1.actEnergy               816673200                       # Energy for activate commands per rank (pJ)
system.mem_ctrls0_1.preEnergy               434072100                       # Energy for precharge commands per rank (pJ)
system.mem_ctrls0_1.readEnergy              581210280                       # Energy for read commands per rank (pJ)
system.mem_ctrls0_1.writeEnergy             259460100                       # Energy for write commands per rank (pJ)
system.mem_ctrls0_1.refreshEnergy        60486107760.000015                       # Energy for refresh commands per rank (pJ)
system.mem_ctrls0_1.actBackEnergy         21260769150                       # Energy for active background per rank (pJ)
system.mem_ctrls0_1.preBackEnergy          3524639040                       # Energy for precharge background per rank (pJ)
system.mem_ctrls0_1.actPowerDownEnergy   120243976080                       # Energy for active power-down per rank (pJ)
system.mem_ctrls0_1.prePowerDownEnergy   100378991040                       # Energy for precharge power-down per rank (pJ)
system.mem_ctrls0_1.selfRefreshEnergy    155393893590                       # Energy for self refresh per rank (pJ)
system.mem_ctrls0_1.totalEnergy          463408807920                       # Total energy per rank (pJ)
system.mem_ctrls0_1.averagePower           396.237529                       # Core power per rank (mW)
system.mem_ctrls0_1.totalIdleTime        1113641105420                       # Total Idle time Per DRAM Rank
system.mem_ctrls0_1.memoryStateTime::IDLE   7048828414                       # Time in different power states
system.mem_ctrls0_1.memoryStateTime::REF  25742148000                       # Time in different power states
system.mem_ctrls0_1.memoryStateTime::SREF 588558295474                       # Time in different power states
system.mem_ctrls0_1.memoryStateTime::PRE_PDN 261403596768                       # Time in different power states
system.mem_ctrls0_1.memoryStateTime::ACT  23076965774                       # Time in different power states
system.mem_ctrls0_1.memoryStateTime::ACT_PDN 263692914794                       # Time in different power states
system.mem_ctrls1.pwrStateResidencyTicks::UNDEFINED 18822864140154                       # Cumulative time (in ticks) in various power states
system.mem_ctrls1.bytes_read::cpu.inst            128                       # Number of bytes read from this memory
system.mem_ctrls1.bytes_read::cpu.data            192                       # Number of bytes read from this memory
system.mem_ctrls1.bytes_read::switch_cpus.inst       162304                       # Number of bytes read from this memory
system.mem_ctrls1.bytes_read::switch_cpus.data      7777536                       # Number of bytes read from this memory
system.mem_ctrls1.bytes_read::switch_cpus_1.inst        50560                       # Number of bytes read from this memory
system.mem_ctrls1.bytes_read::switch_cpus_1.data      2548224                       # Number of bytes read from this memory
system.mem_ctrls1.bytes_read::total          10538944                       # Number of bytes read from this memory
system.mem_ctrls1.bytes_inst_read::cpu.inst          128                       # Number of instructions bytes read from this memory
system.mem_ctrls1.bytes_inst_read::switch_cpus.inst       162304                       # Number of instructions bytes read from this memory
system.mem_ctrls1.bytes_inst_read::switch_cpus_1.inst        50560                       # Number of instructions bytes read from this memory
system.mem_ctrls1.bytes_inst_read::total       212992                       # Number of instructions bytes read from this memory
system.mem_ctrls1.bytes_written::writebacks      6400192                       # Number of bytes written to this memory
system.mem_ctrls1.bytes_written::total        6400192                       # Number of bytes written to this memory
system.mem_ctrls1.num_reads::cpu.inst               2                       # Number of read requests responded to by this memory
system.mem_ctrls1.num_reads::cpu.data               3                       # Number of read requests responded to by this memory
system.mem_ctrls1.num_reads::switch_cpus.inst         2536                       # Number of read requests responded to by this memory
system.mem_ctrls1.num_reads::switch_cpus.data       121524                       # Number of read requests responded to by this memory
system.mem_ctrls1.num_reads::switch_cpus_1.inst          790                       # Number of read requests responded to by this memory
system.mem_ctrls1.num_reads::switch_cpus_1.data        39816                       # Number of read requests responded to by this memory
system.mem_ctrls1.num_reads::total             164671                       # Number of read requests responded to by this memory
system.mem_ctrls1.num_writes::writebacks       100003                       # Number of write requests responded to by this memory
system.mem_ctrls1.num_writes::total            100003                       # Number of write requests responded to by this memory
system.mem_ctrls1.bw_read::cpu.inst               109                       # Total read bandwidth from this memory (bytes/s)
system.mem_ctrls1.bw_read::cpu.data               164                       # Total read bandwidth from this memory (bytes/s)
system.mem_ctrls1.bw_read::switch_cpus.inst       138778                       # Total read bandwidth from this memory (bytes/s)
system.mem_ctrls1.bw_read::switch_cpus.data      6650179                       # Total read bandwidth from this memory (bytes/s)
system.mem_ctrls1.bw_read::switch_cpus_1.inst        43231                       # Total read bandwidth from this memory (bytes/s)
system.mem_ctrls1.bw_read::switch_cpus_1.data      2178858                       # Total read bandwidth from this memory (bytes/s)
system.mem_ctrls1.bw_read::total              9011320                       # Total read bandwidth from this memory (bytes/s)
system.mem_ctrls1.bw_inst_read::cpu.inst          109                       # Instruction read bandwidth from this memory (bytes/s)
system.mem_ctrls1.bw_inst_read::switch_cpus.inst       138778                       # Instruction read bandwidth from this memory (bytes/s)
system.mem_ctrls1.bw_inst_read::switch_cpus_1.inst        43231                       # Instruction read bandwidth from this memory (bytes/s)
system.mem_ctrls1.bw_inst_read::total          182119                       # Instruction read bandwidth from this memory (bytes/s)
system.mem_ctrls1.bw_write::writebacks        5472482                       # Write bandwidth from this memory (bytes/s)
system.mem_ctrls1.bw_write::total             5472482                       # Write bandwidth from this memory (bytes/s)
system.mem_ctrls1.bw_total::writebacks        5472482                       # Total bandwidth to/from this memory (bytes/s)
system.mem_ctrls1.bw_total::cpu.inst              109                       # Total bandwidth to/from this memory (bytes/s)
system.mem_ctrls1.bw_total::cpu.data              164                       # Total bandwidth to/from this memory (bytes/s)
system.mem_ctrls1.bw_total::switch_cpus.inst       138778                       # Total bandwidth to/from this memory (bytes/s)
system.mem_ctrls1.bw_total::switch_cpus.data      6650179                       # Total bandwidth to/from this memory (bytes/s)
system.mem_ctrls1.bw_total::switch_cpus_1.inst        43231                       # Total bandwidth to/from this memory (bytes/s)
system.mem_ctrls1.bw_total::switch_cpus_1.data      2178858                       # Total bandwidth to/from this memory (bytes/s)
system.mem_ctrls1.bw_total::total            14483802                       # Total bandwidth to/from this memory (bytes/s)
system.mem_ctrls1.readReqs                     164671                       # Number of read requests accepted
system.mem_ctrls1.writeReqs                    100003                       # Number of write requests accepted
system.mem_ctrls1.readBursts                   164671                       # Number of DRAM read bursts, including those serviced by the write queue
system.mem_ctrls1.writeBursts                  100003                       # Number of DRAM write bursts, including those merged in the write queue
system.mem_ctrls1.bytesReadDRAM              10535104                       # Total number of bytes read from DRAM
system.mem_ctrls1.bytesReadWrQ                   3840                       # Total number of bytes read from write queue
system.mem_ctrls1.bytesWritten                6398656                       # Total number of bytes written to DRAM
system.mem_ctrls1.bytesReadSys               10538944                       # Total read bytes from the system interface side
system.mem_ctrls1.bytesWrittenSys             6400192                       # Total written bytes from the system interface side
system.mem_ctrls1.servicedByWrQ                    60                       # Number of DRAM read bursts serviced by the write queue
system.mem_ctrls1.mergedWrBursts                    0                       # Number of DRAM write bursts merged with an existing one
system.mem_ctrls1.neitherReadNorWriteReqs            0                       # Number of requests that are neither read nor write
system.mem_ctrls1.perBankRdBursts::0            10129                       # Per bank write bursts
system.mem_ctrls1.perBankRdBursts::1            10290                       # Per bank write bursts
system.mem_ctrls1.perBankRdBursts::2            10495                       # Per bank write bursts
system.mem_ctrls1.perBankRdBursts::3            10838                       # Per bank write bursts
system.mem_ctrls1.perBankRdBursts::4            10718                       # Per bank write bursts
system.mem_ctrls1.perBankRdBursts::5            10457                       # Per bank write bursts
system.mem_ctrls1.perBankRdBursts::6             9764                       # Per bank write bursts
system.mem_ctrls1.perBankRdBursts::7            10164                       # Per bank write bursts
system.mem_ctrls1.perBankRdBursts::8            10580                       # Per bank write bursts
system.mem_ctrls1.perBankRdBursts::9            10693                       # Per bank write bursts
system.mem_ctrls1.perBankRdBursts::10           10195                       # Per bank write bursts
system.mem_ctrls1.perBankRdBursts::11           10499                       # Per bank write bursts
system.mem_ctrls1.perBankRdBursts::12           10118                       # Per bank write bursts
system.mem_ctrls1.perBankRdBursts::13            9955                       # Per bank write bursts
system.mem_ctrls1.perBankRdBursts::14            9829                       # Per bank write bursts
system.mem_ctrls1.perBankRdBursts::15            9887                       # Per bank write bursts
system.mem_ctrls1.perBankWrBursts::0             6398                       # Per bank write bursts
system.mem_ctrls1.perBankWrBursts::1             6512                       # Per bank write bursts
system.mem_ctrls1.perBankWrBursts::2             6263                       # Per bank write bursts
system.mem_ctrls1.perBankWrBursts::3             6373                       # Per bank write bursts
system.mem_ctrls1.perBankWrBursts::4             6279                       # Per bank write bursts
system.mem_ctrls1.perBankWrBursts::5             6237                       # Per bank write bursts
system.mem_ctrls1.perBankWrBursts::6             5886                       # Per bank write bursts
system.mem_ctrls1.perBankWrBursts::7             6021                       # Per bank write bursts
system.mem_ctrls1.perBankWrBursts::8             6055                       # Per bank write bursts
system.mem_ctrls1.perBankWrBursts::9             6153                       # Per bank write bursts
system.mem_ctrls1.perBankWrBursts::10            6350                       # Per bank write bursts
system.mem_ctrls1.perBankWrBursts::11            6727                       # Per bank write bursts
system.mem_ctrls1.perBankWrBursts::12            6377                       # Per bank write bursts
system.mem_ctrls1.perBankWrBursts::13            6080                       # Per bank write bursts
system.mem_ctrls1.perBankWrBursts::14            6018                       # Per bank write bursts
system.mem_ctrls1.perBankWrBursts::15            6250                       # Per bank write bursts
system.mem_ctrls1.numRdRetry                        0                       # Number of times read queue was full causing retry
system.mem_ctrls1.numWrRetry                        0                       # Number of times write queue was full causing retry
system.mem_ctrls1.totGap                 1169495913087                       # Total gap between requests
system.mem_ctrls1.readPktSize::0                    0                       # Read request sizes (log2)
system.mem_ctrls1.readPktSize::1                    0                       # Read request sizes (log2)
system.mem_ctrls1.readPktSize::2                    0                       # Read request sizes (log2)
system.mem_ctrls1.readPktSize::3                    0                       # Read request sizes (log2)
system.mem_ctrls1.readPktSize::4                    0                       # Read request sizes (log2)
system.mem_ctrls1.readPktSize::5                    0                       # Read request sizes (log2)
system.mem_ctrls1.readPktSize::6               164671                       # Read request sizes (log2)
system.mem_ctrls1.writePktSize::0                   0                       # Write request sizes (log2)
system.mem_ctrls1.writePktSize::1                   0                       # Write request sizes (log2)
system.mem_ctrls1.writePktSize::2                   0                       # Write request sizes (log2)
system.mem_ctrls1.writePktSize::3                   0                       # Write request sizes (log2)
system.mem_ctrls1.writePktSize::4                   0                       # Write request sizes (log2)
system.mem_ctrls1.writePktSize::5                   0                       # Write request sizes (log2)
system.mem_ctrls1.writePktSize::6              100003                       # Write request sizes (log2)
system.mem_ctrls1.rdQLenPdf::0                 160980                       # What read queue length does an incoming req see
system.mem_ctrls1.rdQLenPdf::1                   3565                       # What read queue length does an incoming req see
system.mem_ctrls1.rdQLenPdf::2                     64                       # What read queue length does an incoming req see
system.mem_ctrls1.rdQLenPdf::3                      2                       # What read queue length does an incoming req see
system.mem_ctrls1.rdQLenPdf::4                      0                       # What read queue length does an incoming req see
system.mem_ctrls1.rdQLenPdf::5                      0                       # What read queue length does an incoming req see
system.mem_ctrls1.rdQLenPdf::6                      0                       # What read queue length does an incoming req see
system.mem_ctrls1.rdQLenPdf::7                      0                       # What read queue length does an incoming req see
system.mem_ctrls1.rdQLenPdf::8                      0                       # What read queue length does an incoming req see
system.mem_ctrls1.rdQLenPdf::9                      0                       # What read queue length does an incoming req see
system.mem_ctrls1.rdQLenPdf::10                     0                       # What read queue length does an incoming req see
system.mem_ctrls1.rdQLenPdf::11                     0                       # What read queue length does an incoming req see
system.mem_ctrls1.rdQLenPdf::12                     0                       # What read queue length does an incoming req see
system.mem_ctrls1.rdQLenPdf::13                     0                       # What read queue length does an incoming req see
system.mem_ctrls1.rdQLenPdf::14                     0                       # What read queue length does an incoming req see
system.mem_ctrls1.rdQLenPdf::15                     0                       # What read queue length does an incoming req see
system.mem_ctrls1.rdQLenPdf::16                     0                       # What read queue length does an incoming req see
system.mem_ctrls1.rdQLenPdf::17                     0                       # What read queue length does an incoming req see
system.mem_ctrls1.rdQLenPdf::18                     0                       # What read queue length does an incoming req see
system.mem_ctrls1.rdQLenPdf::19                     0                       # What read queue length does an incoming req see
system.mem_ctrls1.rdQLenPdf::20                     0                       # What read queue length does an incoming req see
system.mem_ctrls1.rdQLenPdf::21                     0                       # What read queue length does an incoming req see
system.mem_ctrls1.rdQLenPdf::22                     0                       # What read queue length does an incoming req see
system.mem_ctrls1.rdQLenPdf::23                     0                       # What read queue length does an incoming req see
system.mem_ctrls1.rdQLenPdf::24                     0                       # What read queue length does an incoming req see
system.mem_ctrls1.rdQLenPdf::25                     0                       # What read queue length does an incoming req see
system.mem_ctrls1.rdQLenPdf::26                     0                       # What read queue length does an incoming req see
system.mem_ctrls1.rdQLenPdf::27                     0                       # What read queue length does an incoming req see
system.mem_ctrls1.rdQLenPdf::28                     0                       # What read queue length does an incoming req see
system.mem_ctrls1.rdQLenPdf::29                     0                       # What read queue length does an incoming req see
system.mem_ctrls1.rdQLenPdf::30                     0                       # What read queue length does an incoming req see
system.mem_ctrls1.rdQLenPdf::31                     0                       # What read queue length does an incoming req see
system.mem_ctrls1.wrQLenPdf::0                      2                       # What write queue length does an incoming req see
system.mem_ctrls1.wrQLenPdf::1                      2                       # What write queue length does an incoming req see
system.mem_ctrls1.wrQLenPdf::2                      2                       # What write queue length does an incoming req see
system.mem_ctrls1.wrQLenPdf::3                      2                       # What write queue length does an incoming req see
system.mem_ctrls1.wrQLenPdf::4                      2                       # What write queue length does an incoming req see
system.mem_ctrls1.wrQLenPdf::5                      2                       # What write queue length does an incoming req see
system.mem_ctrls1.wrQLenPdf::6                      2                       # What write queue length does an incoming req see
system.mem_ctrls1.wrQLenPdf::7                      2                       # What write queue length does an incoming req see
system.mem_ctrls1.wrQLenPdf::8                      2                       # What write queue length does an incoming req see
system.mem_ctrls1.wrQLenPdf::9                      2                       # What write queue length does an incoming req see
system.mem_ctrls1.wrQLenPdf::10                     2                       # What write queue length does an incoming req see
system.mem_ctrls1.wrQLenPdf::11                     2                       # What write queue length does an incoming req see
system.mem_ctrls1.wrQLenPdf::12                     2                       # What write queue length does an incoming req see
system.mem_ctrls1.wrQLenPdf::13                     2                       # What write queue length does an incoming req see
system.mem_ctrls1.wrQLenPdf::14                     2                       # What write queue length does an incoming req see
system.mem_ctrls1.wrQLenPdf::15                  4468                       # What write queue length does an incoming req see
system.mem_ctrls1.wrQLenPdf::16                  4528                       # What write queue length does an incoming req see
system.mem_ctrls1.wrQLenPdf::17                  5557                       # What write queue length does an incoming req see
system.mem_ctrls1.wrQLenPdf::18                  5650                       # What write queue length does an incoming req see
system.mem_ctrls1.wrQLenPdf::19                  5688                       # What write queue length does an incoming req see
system.mem_ctrls1.wrQLenPdf::20                  5687                       # What write queue length does an incoming req see
system.mem_ctrls1.wrQLenPdf::21                  5698                       # What write queue length does an incoming req see
system.mem_ctrls1.wrQLenPdf::22                  5677                       # What write queue length does an incoming req see
system.mem_ctrls1.wrQLenPdf::23                  5681                       # What write queue length does an incoming req see
system.mem_ctrls1.wrQLenPdf::24                  5694                       # What write queue length does an incoming req see
system.mem_ctrls1.wrQLenPdf::25                  5682                       # What write queue length does an incoming req see
system.mem_ctrls1.wrQLenPdf::26                  5684                       # What write queue length does an incoming req see
system.mem_ctrls1.wrQLenPdf::27                  5689                       # What write queue length does an incoming req see
system.mem_ctrls1.wrQLenPdf::28                  5697                       # What write queue length does an incoming req see
system.mem_ctrls1.wrQLenPdf::29                  5731                       # What write queue length does an incoming req see
system.mem_ctrls1.wrQLenPdf::30                  5689                       # What write queue length does an incoming req see
system.mem_ctrls1.wrQLenPdf::31                  5650                       # What write queue length does an incoming req see
system.mem_ctrls1.wrQLenPdf::32                  5649                       # What write queue length does an incoming req see
system.mem_ctrls1.wrQLenPdf::33                   115                       # What write queue length does an incoming req see
system.mem_ctrls1.wrQLenPdf::34                    34                       # What write queue length does an incoming req see
system.mem_ctrls1.wrQLenPdf::35                    11                       # What write queue length does an incoming req see
system.mem_ctrls1.wrQLenPdf::36                     8                       # What write queue length does an incoming req see
system.mem_ctrls1.wrQLenPdf::37                     5                       # What write queue length does an incoming req see
system.mem_ctrls1.wrQLenPdf::38                     1                       # What write queue length does an incoming req see
system.mem_ctrls1.wrQLenPdf::39                     0                       # What write queue length does an incoming req see
system.mem_ctrls1.wrQLenPdf::40                     0                       # What write queue length does an incoming req see
system.mem_ctrls1.wrQLenPdf::41                     0                       # What write queue length does an incoming req see
system.mem_ctrls1.wrQLenPdf::42                     0                       # What write queue length does an incoming req see
system.mem_ctrls1.wrQLenPdf::43                     0                       # What write queue length does an incoming req see
system.mem_ctrls1.wrQLenPdf::44                     0                       # What write queue length does an incoming req see
system.mem_ctrls1.wrQLenPdf::45                     0                       # What write queue length does an incoming req see
system.mem_ctrls1.wrQLenPdf::46                     0                       # What write queue length does an incoming req see
system.mem_ctrls1.wrQLenPdf::47                     0                       # What write queue length does an incoming req see
system.mem_ctrls1.wrQLenPdf::48                     0                       # What write queue length does an incoming req see
system.mem_ctrls1.wrQLenPdf::49                     0                       # What write queue length does an incoming req see
system.mem_ctrls1.wrQLenPdf::50                     0                       # What write queue length does an incoming req see
system.mem_ctrls1.wrQLenPdf::51                     0                       # What write queue length does an incoming req see
system.mem_ctrls1.wrQLenPdf::52                     0                       # What write queue length does an incoming req see
system.mem_ctrls1.wrQLenPdf::53                     0                       # What write queue length does an incoming req see
system.mem_ctrls1.wrQLenPdf::54                     0                       # What write queue length does an incoming req see
system.mem_ctrls1.wrQLenPdf::55                     0                       # What write queue length does an incoming req see
system.mem_ctrls1.wrQLenPdf::56                     0                       # What write queue length does an incoming req see
system.mem_ctrls1.wrQLenPdf::57                     0                       # What write queue length does an incoming req see
system.mem_ctrls1.wrQLenPdf::58                     0                       # What write queue length does an incoming req see
system.mem_ctrls1.wrQLenPdf::59                     0                       # What write queue length does an incoming req see
system.mem_ctrls1.wrQLenPdf::60                     0                       # What write queue length does an incoming req see
system.mem_ctrls1.wrQLenPdf::61                     0                       # What write queue length does an incoming req see
system.mem_ctrls1.wrQLenPdf::62                     0                       # What write queue length does an incoming req see
system.mem_ctrls1.wrQLenPdf::63                     0                       # What write queue length does an incoming req see
system.mem_ctrls1.bytesPerActivate::samples       231318                       # Bytes accessed per row activation
system.mem_ctrls1.bytesPerActivate::mean    73.205544                       # Bytes accessed per row activation
system.mem_ctrls1.bytesPerActivate::gmean    68.506107                       # Bytes accessed per row activation
system.mem_ctrls1.bytesPerActivate::stdev    56.834592                       # Bytes accessed per row activation
system.mem_ctrls1.bytesPerActivate::0-127       213587     92.33%     92.33% # Bytes accessed per row activation
system.mem_ctrls1.bytesPerActivate::128-255        15646      6.76%     99.10% # Bytes accessed per row activation
system.mem_ctrls1.bytesPerActivate::256-383          839      0.36%     99.46% # Bytes accessed per row activation
system.mem_ctrls1.bytesPerActivate::384-511          290      0.13%     99.59% # Bytes accessed per row activation
system.mem_ctrls1.bytesPerActivate::512-639          196      0.08%     99.67% # Bytes accessed per row activation
system.mem_ctrls1.bytesPerActivate::640-767          142      0.06%     99.73% # Bytes accessed per row activation
system.mem_ctrls1.bytesPerActivate::768-895          107      0.05%     99.78% # Bytes accessed per row activation
system.mem_ctrls1.bytesPerActivate::896-1023           85      0.04%     99.82% # Bytes accessed per row activation
system.mem_ctrls1.bytesPerActivate::1024-1151          426      0.18%    100.00% # Bytes accessed per row activation
system.mem_ctrls1.bytesPerActivate::total       231318                       # Bytes accessed per row activation
system.mem_ctrls1.rdPerTurnAround::samples         5649                       # Reads before turning the bus around for writes
system.mem_ctrls1.rdPerTurnAround::mean     29.138609                       # Reads before turning the bus around for writes
system.mem_ctrls1.rdPerTurnAround::stdev   347.783396                       # Reads before turning the bus around for writes
system.mem_ctrls1.rdPerTurnAround::0-1023         5648     99.98%     99.98% # Reads before turning the bus around for writes
system.mem_ctrls1.rdPerTurnAround::25600-26623            1      0.02%    100.00% # Reads before turning the bus around for writes
system.mem_ctrls1.rdPerTurnAround::total         5649                       # Reads before turning the bus around for writes
system.mem_ctrls1.wrPerTurnAround::samples         5649                       # Writes before turning the bus around for reads
system.mem_ctrls1.wrPerTurnAround::mean     17.698531                       # Writes before turning the bus around for reads
system.mem_ctrls1.wrPerTurnAround::gmean    17.671371                       # Writes before turning the bus around for reads
system.mem_ctrls1.wrPerTurnAround::stdev     0.977400                       # Writes before turning the bus around for reads
system.mem_ctrls1.wrPerTurnAround::16            1152     20.39%     20.39% # Writes before turning the bus around for reads
system.mem_ctrls1.wrPerTurnAround::17              20      0.35%     20.75% # Writes before turning the bus around for reads
system.mem_ctrls1.wrPerTurnAround::18            4026     71.27%     92.02% # Writes before turning the bus around for reads
system.mem_ctrls1.wrPerTurnAround::19             354      6.27%     98.28% # Writes before turning the bus around for reads
system.mem_ctrls1.wrPerTurnAround::20              62      1.10%     99.38% # Writes before turning the bus around for reads
system.mem_ctrls1.wrPerTurnAround::21              20      0.35%     99.73% # Writes before turning the bus around for reads
system.mem_ctrls1.wrPerTurnAround::22               5      0.09%     99.82% # Writes before turning the bus around for reads
system.mem_ctrls1.wrPerTurnAround::23               4      0.07%     99.89% # Writes before turning the bus around for reads
system.mem_ctrls1.wrPerTurnAround::24               3      0.05%     99.95% # Writes before turning the bus around for reads
system.mem_ctrls1.wrPerTurnAround::25               1      0.02%     99.96% # Writes before turning the bus around for reads
system.mem_ctrls1.wrPerTurnAround::27               2      0.04%    100.00% # Writes before turning the bus around for reads
system.mem_ctrls1.wrPerTurnAround::total         5649                       # Writes before turning the bus around for reads
system.mem_ctrls1.totQLat                 28782742529                       # Total ticks spent queuing
system.mem_ctrls1.totMemAccLat            31869198779                       # Total ticks spent from burst creation until serviced by the DRAM
system.mem_ctrls1.totBusLat                 823055000                       # Total ticks spent in databus transfers
system.mem_ctrls1.avgQLat                   174853.09                       # Average queueing delay per DRAM burst
system.mem_ctrls1.avgBusLat                   5000.00                       # Average bus latency per DRAM burst
system.mem_ctrls1.avgMemAccLat              193603.09                       # Average memory access latency per DRAM burst
system.mem_ctrls1.avgRdBW                        9.01                       # Average DRAM read bandwidth in MiByte/s
system.mem_ctrls1.avgWrBW                        5.47                       # Average achieved write bandwidth in MiByte/s
system.mem_ctrls1.avgRdBWSys                     9.01                       # Average system read bandwidth in MiByte/s
system.mem_ctrls1.avgWrBWSys                     5.47                       # Average system write bandwidth in MiByte/s
system.mem_ctrls1.peakBW                     12800.00                       # Theoretical peak bandwidth in MiByte/s
system.mem_ctrls1.busUtil                        0.11                       # Data bus utilization in percentage
system.mem_ctrls1.busUtilRead                    0.07                       # Data bus utilization in percentage for reads
system.mem_ctrls1.busUtilWrite                   0.04                       # Data bus utilization in percentage for writes
system.mem_ctrls1.avgRdQLen                      1.01                       # Average read queue length when enqueuing
system.mem_ctrls1.avgWrQLen                     21.11                       # Average write queue length when enqueuing
system.mem_ctrls1.readRowHits                   22900                       # Number of row buffer hits during reads
system.mem_ctrls1.writeRowHits                  10372                       # Number of row buffer hits during writes
system.mem_ctrls1.readRowHitRate                13.91                       # Row buffer hit rate for reads
system.mem_ctrls1.writeRowHitRate               10.37                       # Row buffer hit rate for writes
system.mem_ctrls1.avgGap                   4418627.87                       # Average gap between requests
system.mem_ctrls1.pageHitRate                   12.57                       # Row buffer hit rate, read and write combined
system.mem_ctrls1_0.actEnergy               828561300                       # Energy for activate commands per rank (pJ)
system.mem_ctrls1_0.preEnergy               440390775                       # Energy for precharge commands per rank (pJ)
system.mem_ctrls1_0.readEnergy              591584700                       # Energy for read commands per rank (pJ)
system.mem_ctrls1_0.writeEnergy             260838180                       # Energy for write commands per rank (pJ)
system.mem_ctrls1_0.refreshEnergy        60747329760.000015                       # Energy for refresh commands per rank (pJ)
system.mem_ctrls1_0.actBackEnergy         21208411230                       # Energy for active background per rank (pJ)
system.mem_ctrls1_0.preBackEnergy          3516919680                       # Energy for precharge background per rank (pJ)
system.mem_ctrls1_0.actPowerDownEnergy   121541794260                       # Energy for active power-down per rank (pJ)
system.mem_ctrls1_0.prePowerDownEnergy   100850060160                       # Energy for precharge power-down per rank (pJ)
system.mem_ctrls1_0.selfRefreshEnergy    154400983350                       # Energy for self refresh per rank (pJ)
system.mem_ctrls1_0.totalEnergy          464416872945                       # Total energy per rank (pJ)
system.mem_ctrls1_0.averagePower           397.099475                       # Core power per rank (mW)
system.mem_ctrls1_0.totalIdleTime        1113749161412                       # Total Idle time Per DRAM Rank
system.mem_ctrls1_0.memoryStateTime::IDLE   7018724923                       # Time in different power states
system.mem_ctrls1_0.memoryStateTime::REF  25852480000                       # Time in different power states
system.mem_ctrls1_0.memoryStateTime::SREF 584618367474                       # Time in different power states
system.mem_ctrls1_0.memoryStateTime::PRE_PDN 262630358915                       # Time in different power states
system.mem_ctrls1_0.memoryStateTime::ACT  22863721214                       # Time in different power states
system.mem_ctrls1_0.memoryStateTime::ACT_PDN 266539096698                       # Time in different power states
system.mem_ctrls1_1.actEnergy               823049220                       # Energy for activate commands per rank (pJ)
system.mem_ctrls1_1.preEnergy               437461035                       # Energy for precharge commands per rank (pJ)
system.mem_ctrls1_1.readEnergy              583737840                       # Energy for read commands per rank (pJ)
system.mem_ctrls1_1.writeEnergy             261052200                       # Energy for write commands per rank (pJ)
system.mem_ctrls1_1.refreshEnergy        60539581440.000015                       # Energy for refresh commands per rank (pJ)
system.mem_ctrls1_1.actBackEnergy         21070075650                       # Energy for active background per rank (pJ)
system.mem_ctrls1_1.preBackEnergy          3511720800                       # Energy for precharge background per rank (pJ)
system.mem_ctrls1_1.actPowerDownEnergy   120712709880                       # Energy for active power-down per rank (pJ)
system.mem_ctrls1_1.prePowerDownEnergy   100810888320                       # Energy for precharge power-down per rank (pJ)
system.mem_ctrls1_1.selfRefreshEnergy    154907508195                       # Energy for self refresh per rank (pJ)
system.mem_ctrls1_1.totalEnergy          463686351180                       # Total energy per rank (pJ)
system.mem_ctrls1_1.averagePower           396.474842                       # Core power per rank (mW)
system.mem_ctrls1_1.totalIdleTime        1114095735293                       # Total Idle time Per DRAM Rank
system.mem_ctrls1_1.memoryStateTime::IDLE   7008698868                       # Time in different power states
system.mem_ctrls1_1.memoryStateTime::REF  25764318000                       # Time in different power states
system.mem_ctrls1_1.memoryStateTime::SREF 586858606474                       # Time in different power states
system.mem_ctrls1_1.memoryStateTime::PRE_PDN 262528413617                       # Time in different power states
system.mem_ctrls1_1.memoryStateTime::ACT  22641778918                       # Time in different power states
system.mem_ctrls1_1.memoryStateTime::ACT_PDN 264720933347                       # Time in different power states
system.pwrStateResidencyTicks::UNDEFINED 18822864140154                       # Cumulative time (in ticks) in various power states
system.cpu.branchPred.lookups                       3                       # Number of BP lookups
system.cpu.branchPred.condPredicted                 1                       # Number of conditional branches predicted
system.cpu.branchPred.condIncorrect                 1                       # Number of conditional branches incorrect
system.cpu.branchPred.BTBLookups                    2                       # Number of BTB lookups
system.cpu.branchPred.BTBHits                       0                       # Number of BTB hits
system.cpu.branchPred.BTBCorrect                    0                       # Number of correct BTB predictions (this stat may not work properly.
system.cpu.branchPred.BTBHitPct              0.000000                       # BTB Hit Percentage
system.cpu.branchPred.usedRAS                       0                       # Number of times the RAS was used to get a target.
system.cpu.branchPred.RASInCorrect                  0                       # Number of incorrect RAS predictions.
system.cpu.branchPred.indirectLookups               0                       # Number of indirect predictor lookups.
system.cpu.branchPred.indirectHits                  0                       # Number of indirect target hits.
system.cpu.branchPred.indirectMisses                0                       # Number of indirect misses.
system.cpu.branchPredindirectMispredicted            0                       # Number of mispredicted indirect branches.
system.cpu_voltage_domain.voltage                   1                       # Voltage in Volts
system.cpu_clk_domain.clock                       333                       # Clock period in ticks
system.cpu.dtb.fetch_hits                           0                       # ITB hits
system.cpu.dtb.fetch_misses                         0                       # ITB misses
system.cpu.dtb.fetch_acv                            0                       # ITB acv
system.cpu.dtb.fetch_accesses                       0                       # ITB accesses
system.cpu.dtb.read_hits                            3                       # DTB read hits
system.cpu.dtb.read_misses                          0                       # DTB read misses
system.cpu.dtb.read_acv                             0                       # DTB read access violations
system.cpu.dtb.read_accesses                        3                       # DTB read accesses
system.cpu.dtb.write_hits                          11                       # DTB write hits
system.cpu.dtb.write_misses                         0                       # DTB write misses
system.cpu.dtb.write_acv                            0                       # DTB write access violations
system.cpu.dtb.write_accesses                      11                       # DTB write accesses
system.cpu.dtb.data_hits                           14                       # DTB hits
system.cpu.dtb.data_misses                          0                       # DTB misses
system.cpu.dtb.data_acv                             0                       # DTB access violations
system.cpu.dtb.data_accesses                       14                       # DTB accesses
system.cpu.itb.fetch_hits                           6                       # ITB hits
system.cpu.itb.fetch_misses                         0                       # ITB misses
system.cpu.itb.fetch_acv                            0                       # ITB acv
system.cpu.itb.fetch_accesses                       6                       # ITB accesses
system.cpu.itb.read_hits                            0                       # DTB read hits
system.cpu.itb.read_misses                          0                       # DTB read misses
system.cpu.itb.read_acv                             0                       # DTB read access violations
system.cpu.itb.read_accesses                        0                       # DTB read accesses
system.cpu.itb.write_hits                           0                       # DTB write hits
system.cpu.itb.write_misses                         0                       # DTB write misses
system.cpu.itb.write_acv                            0                       # DTB write access violations
system.cpu.itb.write_accesses                       0                       # DTB write accesses
system.cpu.itb.data_hits                            0                       # DTB hits
system.cpu.itb.data_misses                          0                       # DTB misses
system.cpu.itb.data_acv                             0                       # DTB access violations
system.cpu.itb.data_accesses                        0                       # DTB accesses
system.cpu.workload.num_syscalls                    0                       # Number of system calls
system.cpu.pwrStateResidencyTicks::ON    1169522749224                       # Cumulative time (in ticks) in various power states
system.cpu.numCycles                              884                       # number of cpu cycles simulated
system.cpu.numWorkItemsStarted                      0                       # number of work items this cpu started
system.cpu.numWorkItemsCompleted                    0                       # number of work items this cpu completed
system.cpu.fetch.icacheStallCycles                 63                       # Number of cycles fetch is stalled on an Icache miss
system.cpu.fetch.Insts                             31                       # Number of instructions fetch has processed
system.cpu.fetch.Branches                           3                       # Number of branches that fetch encountered
system.cpu.fetch.Cycles                             5                       # Number of cycles fetch has run and was not squashing or blocked
system.cpu.fetch.SquashCycles                       5                       # Number of cycles fetch has spent squashing
system.cpu.fetch.PendingDrainCycles                 8                       # Number of cycles fetch has spent waiting on pipes to drain
system.cpu.fetch.CacheLines                         6                       # Number of cache lines fetched
system.cpu.fetch.IcacheSquashes                     3                       # Number of outstanding Icache misses that were squashed
system.cpu.fetch.rateDist::samples                 78                       # Number of instructions fetched each cycle (Total)
system.cpu.fetch.rateDist::mean              0.397436                       # Number of instructions fetched each cycle (Total)
system.cpu.fetch.rateDist::stdev             1.646245                       # Number of instructions fetched each cycle (Total)
system.cpu.fetch.rateDist::underflows               0      0.00%      0.00% # Number of instructions fetched each cycle (Total)
system.cpu.fetch.rateDist::0                       73     93.59%     93.59% # Number of instructions fetched each cycle (Total)
system.cpu.fetch.rateDist::1                        0      0.00%     93.59% # Number of instructions fetched each cycle (Total)
system.cpu.fetch.rateDist::2                        1      1.28%     94.87% # Number of instructions fetched each cycle (Total)
system.cpu.fetch.rateDist::3                        0      0.00%     94.87% # Number of instructions fetched each cycle (Total)
[...]
system.switch_cpus_1.iq.int_inst_queue_writes    863540387                       # Number of integer instruction queue writes
system.switch_cpus_1.iq.int_inst_queue_wakeup_accesses    593032358                       # Number of integer instruction queue wakeup accesses
system.switch_cpus_1.iq.fp_inst_queue_reads     26230675                       # Number of floating instruction queue reads
system.switch_cpus_1.iq.fp_inst_queue_writes     18777706                       # Number of floating instruction queue writes
system.switch_cpus_1.iq.fp_inst_queue_wakeup_accesses     12809103                       # Number of floating instruction queue wakeup accesses
system.switch_cpus_1.iq.int_alu_accesses    635949994                       # Number of integer alu accesses
system.switch_cpus_1.iq.fp_alu_accesses      13178690                       # Number of floating point alu accesses
system.switch_cpus_1.iew.lsq.thread0.forwLoads      6267038                       # Number of loads that had data forwarded from stores
system.switch_cpus_1.iew.lsq.thread0.invAddrLoads            0                       # Number of loads ignored due to an invalid address
system.switch_cpus_1.iew.lsq.thread0.squashedLoads     43725056                       # Number of loads squashed
system.switch_cpus_1.iew.lsq.thread0.ignoredResponses        81883                       # Number of memory responses ignored because the instruction is squashed
system.switch_cpus_1.iew.lsq.thread0.memOrderViolation        73478                       # Number of memory ordering violations
system.switch_cpus_1.iew.lsq.thread0.squashedStores     12590631                       # Number of stores squashed
system.switch_cpus_1.iew.lsq.thread0.invAddrSwpfs            0                       # Number of software prefetches ignored due to an invalid address
system.switch_cpus_1.iew.lsq.thread0.blockedLoads            0                       # Number of blocked loads due to partial load-store forwarding
system.switch_cpus_1.iew.lsq.thread0.rescheduledLoads        50947                       # Number of loads that were rescheduled
system.switch_cpus_1.iew.lsq.thread0.cacheBlocked      5592140                       # Number of times an access to memory failed due to the cache being blocked
system.switch_cpus_1.iew.iewIdleCycles              0                       # Number of cycles IEW is idle
system.switch_cpus_1.iew.iewSquashCycles      8513380                       # Number of cycles IEW is squashing
system.switch_cpus_1.iew.iewBlockCycles      31283028                       # Number of cycles IEW is blocking
system.switch_cpus_1.iew.iewUnblockCycles      4576979                       # Number of cycles IEW is unblocking
system.switch_cpus_1.iew.iewDispatchedInsts    707735934                       # Number of instructions dispatched to IQ
system.switch_cpus_1.iew.iewDispSquashedInsts      2952733                       # Number of squashed instructions skipped by dispatch
system.switch_cpus_1.iew.iewDispLoadInsts    150853325                       # Number of dispatched load instructions
system.switch_cpus_1.iew.iewDispStoreInsts     61008311                       # Number of dispatched store instructions
system.switch_cpus_1.iew.iewDispNonSpecInsts         1445                       # Number of dispatched non-speculative instructions
system.switch_cpus_1.iew.iewIQFullEvents        92448                       # Number of times the IQ has become full, causing a stall
system.switch_cpus_1.iew.iewLSQFullEvents      4177169                       # Number of times the LSQ has become full, causing a stall
system.switch_cpus_1.iew.memOrderViolationEvents        73478                       # Number of memory order violations
system.switch_cpus_1.iew.predictedTakenIncorrect      4875205                       # Number of branches that were predicted taken incorrectly
system.switch_cpus_1.iew.predictedNotTakenIncorrect      4588028                       # Number of branches that were predicted not taken incorrectly
system.switch_cpus_1.iew.branchMispredicts      9463233                       # Number of branch mispredicts detected at execute
system.switch_cpus_1.iew.iewExecutedInsts    621718712                       # Number of executed instructions
system.switch_cpus_1.iew.iewExecLoadInsts    142131237                       # Number of load instructions executed
system.switch_cpus_1.iew.iewExecSquashedInsts     14362399                       # Number of squashed instructions skipped in execute
system.switch_cpus_1.iew.exec_swp                   0                       # number of swp insts executed
system.switch_cpus_1.iew.exec_nop            16611074                       # number of nop insts executed
system.switch_cpus_1.iew.exec_refs          197116586                       # number of memory reference insts executed
system.switch_cpus_1.iew.exec_branches       94595202                       # Number of branches executed
system.switch_cpus_1.iew.exec_stores         54985349                       # Number of stores executed
system.switch_cpus_1.iew.exec_rate           1.561464                       # Inst execution rate
system.switch_cpus_1.iew.wb_sent            609657648                       # cumulative count of insts sent to commit
system.switch_cpus_1.iew.wb_count           605841461                       # cumulative count of insts written-back
system.switch_cpus_1.iew.wb_producers       349296153                       # num instructions producing a value
system.switch_cpus_1.iew.wb_consumers       442696068                       # num instructions consuming a value
system.switch_cpus_1.iew.wb_rate             1.521587                       # insts written-back per cycle
system.switch_cpus_1.iew.wb_fanout           0.789020                       # average fanout of values written-back
system.switch_cpus_1.commit.commitSquashedInsts    192141331                       # The number of squashed insts skipped by commit
system.switch_cpus_1.commit.commitNonSpecStalls         1564                       # The number of times commit has been forced to stall to communicate backwards
system.switch_cpus_1.commit.branchMispredicts      8302934                       # The number of times a branch was mispredicted
system.switch_cpus_1.commit.committed_per_cycle::samples    356018381                       # Number of insts commited each cycle
system.switch_cpus_1.commit.committed_per_cycle::mean     1.441280                       # Number of insts commited each cycle
system.switch_cpus_1.commit.committed_per_cycle::stdev     2.463387                       # Number of insts commited each cycle
system.switch_cpus_1.commit.committed_per_cycle::underflows            0      0.00%      0.00% # Number of insts commited each cycle
system.switch_cpus_1.commit.committed_per_cycle::0    206288130     57.94%     57.94% # Number of insts commited each cycle
system.switch_cpus_1.commit.committed_per_cycle::1     60891301     17.10%     75.05% # Number of insts commited each cycle
system.switch_cpus_1.commit.committed_per_cycle::2     20276009      5.70%     80.74% # Number of insts commited each cycle
system.switch_cpus_1.commit.committed_per_cycle::3     13778429      3.87%     84.61% # Number of insts commited each cycle
system.switch_cpus_1.commit.committed_per_cycle::4      7736814      2.17%     86.79% # Number of insts commited each cycle
system.switch_cpus_1.commit.committed_per_cycle::5      7028853      1.97%     88.76% # Number of insts commited each cycle
system.switch_cpus_1.commit.committed_per_cycle::6      5865610      1.65%     90.41% # Number of insts commited each cycle
system.switch_cpus_1.commit.committed_per_cycle::7      4167380      1.17%     91.58% # Number of insts commited each cycle
system.switch_cpus_1.commit.committed_per_cycle::8     29985855      8.42%    100.00% # Number of insts commited each cycle
system.switch_cpus_1.commit.committed_per_cycle::overflows            0      0.00%    100.00% # Number of insts commited each cycle
system.switch_cpus_1.commit.committed_per_cycle::min_value            0                       # Number of insts commited each cycle
system.switch_cpus_1.commit.committed_per_cycle::max_value            8                       # Number of insts commited each cycle
system.switch_cpus_1.commit.committed_per_cycle::total    356018381                       # Number of insts commited each cycle
system.switch_cpus_1.commit.committedInsts    513122287                       # Number of instructions committed
system.switch_cpus_1.commit.committedOps    513122287                       # Number of ops (including micro ops) committed
system.switch_cpus_1.commit.swp_count               0                       # Number of s/w prefetches committed
system.switch_cpus_1.commit.refs            155545944                       # Number of memory references committed
system.switch_cpus_1.commit.loads           107128264                       # Number of loads committed
system.switch_cpus_1.commit.membars               782                       # Number of memory barriers committed
system.switch_cpus_1.commit.branches         79583286                       # Number of branches committed
system.switch_cpus_1.commit.fp_insts         11632020                       # Number of committed floating point instructions.
system.switch_cpus_1.commit.int_insts       487558660                       # Number of committed integer instructions.
system.switch_cpus_1.commit.function_calls      3555386                       # Number of function calls committed.
system.switch_cpus_1.commit.op_class_0::No_OpClass     13292047      2.59%      2.59% # Class of committed instruction
system.switch_cpus_1.commit.op_class_0::IntAlu    334471933     65.18%     67.77% # Class of committed instruction
system.switch_cpus_1.commit.op_class_0::IntMult       177052      0.03%     67.81% # Class of committed instruction
system.switch_cpus_1.commit.op_class_0::IntDiv            0      0.00%     67.81% # Class of committed instruction
system.switch_cpus_1.commit.op_class_0::FloatAdd      4435607      0.86%     68.67% # Class of committed instruction
system.switch_cpus_1.commit.op_class_0::FloatCmp      3623622      0.71%     69.38% # Class of committed instruction
system.switch_cpus_1.commit.op_class_0::FloatCvt      1489216      0.29%     69.67% # Class of committed instruction
system.switch_cpus_1.commit.op_class_0::FloatMult            0      0.00%     69.67% # Class of committed instruction
system.switch_cpus_1.commit.op_class_0::FloatMultAcc            0      0.00%     69.67% # Class of committed instruction
system.switch_cpus_1.commit.op_class_0::FloatDiv        86084      0.02%     69.69% # Class of committed instruction
system.switch_cpus_1.commit.op_class_0::FloatMisc            0      0.00%     69.69% # Class of committed instruction
system.switch_cpus_1.commit.op_class_0::FloatSqrt            0      0.00%     69.69% # Class of committed instruction
system.switch_cpus_1.commit.op_class_0::SimdAdd            0      0.00%     69.69% # Class of committed instruction
system.switch_cpus_1.commit.op_class_0::SimdAddAcc            0      0.00%     69.69% # Class of committed instruction
system.switch_cpus_1.commit.op_class_0::SimdAlu            0      0.00%     69.69% # Class of committed instruction
system.switch_cpus_1.commit.op_class_0::SimdCmp            0      0.00%     69.69% # Class of committed instruction
system.switch_cpus_1.commit.op_class_0::SimdCvt            0      0.00%     69.69% # Class of committed instruction
system.switch_cpus_1.commit.op_class_0::SimdMisc            0      0.00%     69.69% # Class of committed instruction
system.switch_cpus_1.commit.op_class_0::SimdMult            0      0.00%     69.69% # Class of committed instruction
system.switch_cpus_1.commit.op_class_0::SimdMultAcc            0      0.00%     69.69% # Class of committed instruction
system.switch_cpus_1.commit.op_class_0::SimdShift            0      0.00%     69.69% # Class of committed instruction
system.switch_cpus_1.commit.op_class_0::SimdShiftAcc            0      0.00%     69.69% # Class of committed instruction
system.switch_cpus_1.commit.op_class_0::SimdSqrt            0      0.00%     69.69% # Class of committed instruction
system.switch_cpus_1.commit.op_class_0::SimdFloatAdd            0      0.00%     69.69% # Class of committed instruction
system.switch_cpus_1.commit.op_class_0::SimdFloatAlu            0      0.00%     69.69% # Class of committed instruction
system.switch_cpus_1.commit.op_class_0::SimdFloatCmp            0      0.00%     69.69% # Class of committed instruction
system.switch_cpus_1.commit.op_class_0::SimdFloatCvt            0      0.00%     69.69% # Class of committed instruction
system.switch_cpus_1.commit.op_class_0::SimdFloatDiv            0      0.00%     69.69% # Class of committed instruction
system.switch_cpus_1.commit.op_class_0::SimdFloatMisc            0      0.00%     69.69% # Class of committed instruction
system.switch_cpus_1.commit.op_class_0::SimdFloatMult            0      0.00%     69.69% # Class of committed instruction
system.switch_cpus_1.commit.op_class_0::SimdFloatMultAcc            0      0.00%     69.69% # Class of committed instruction
system.switch_cpus_1.commit.op_class_0::SimdFloatSqrt            0      0.00%     69.69% # Class of committed instruction
system.switch_cpus_1.commit.op_class_0::MemRead    105516381     20.56%     90.25% # Class of committed instruction
system.switch_cpus_1.commit.op_class_0::MemWrite     48032854      9.36%     99.61% # Class of committed instruction
system.switch_cpus_1.commit.op_class_0::FloatMemRead      1612665      0.31%     99.93% # Class of committed instruction
system.switch_cpus_1.commit.op_class_0::FloatMemWrite       384826      0.07%    100.00% # Class of committed instruction
system.switch_cpus_1.commit.op_class_0::IprAccess            0      0.00%    100.00% # Class of committed instruction
system.switch_cpus_1.commit.op_class_0::InstPrefetch            0      0.00%    100.00% # Class of committed instruction
system.switch_cpus_1.commit.op_class_0::total    513122287                       # Class of committed instruction
system.switch_cpus_1.commit.bw_lim_events     29985855                       # number cycles where commit BW limit reached
system.switch_cpus_1.rob.rob_reads         1029250204                       # The number of ROB reads
system.switch_cpus_1.rob.rob_writes        1439759758                       # The number of ROB writes
system.switch_cpus_1.timesIdled               1724571                       # Number of times that the entire CPU went into an idle state and unscheduled itself
system.switch_cpus_1.idleCycles              13090212                       # Total number of cycles that the CPU has spent unscheduled due to idling
system.switch_cpus_1.committedInsts         500000000                       # Number of Instructions Simulated
system.switch_cpus_1.committedOps           500000000                       # Number of Ops (including micro ops) Simulated
system.switch_cpus_1.cpi                     0.796328                       # CPI: Cycles Per Instruction
system.switch_cpus_1.cpi_total               0.796328                       # CPI: Total CPI of All Threads
system.switch_cpus_1.ipc                     1.255764                       # IPC: Instructions Per Cycle
system.switch_cpus_1.ipc_total               1.255764                       # IPC: Total IPC of All Threads
system.switch_cpus_1.int_regfile_reads      824273843                       # number of integer regfile reads
system.switch_cpus_1.int_regfile_writes     454907208                       # number of integer regfile writes
system.switch_cpus_1.fp_regfile_reads        16577935                       # number of floating regfile reads
system.switch_cpus_1.fp_regfile_writes        8272008                       # number of floating regfile writes
system.switch_cpus_1.misc_regfile_reads        171544                       # number of misc regfile reads
system.switch_cpus_1.misc_regfile_writes        86444                       # number of misc regfile writes
system.tol3bus.snoop_filter.tot_requests      4708206                       # Total number of requests made to the snoop filter.
system.tol3bus.snoop_filter.hit_single_requests      2352106                       # Number of requests hitting in the snoop filter with a single holder of the requested data.
system.tol3bus.snoop_filter.hit_multi_requests            0                       # Number of requests hitting in the snoop filter with multiple (>1) holders of the requested data.
system.tol3bus.snoop_filter.tot_snoops           1356                       # Total number of snoops made to the snoop filter.
system.tol3bus.snoop_filter.hit_single_snoops         1356                       # Number of snoops hitting in the snoop filter with a single holder of the requested data.
system.tol3bus.snoop_filter.hit_multi_snoops            0                       # Number of snoops hitting in the snoop filter with multiple (>1) holders of the requested data.
system.tol3bus.pwrStateResidencyTicks::UNDEFINED 18822864140154                       # Cumulative time (in ticks) in various power states
system.tol3bus.trans_dist::ReadResp           1655363                       # Transaction distribution
system.tol3bus.trans_dist::WritebackDirty      1467044                       # Transaction distribution
system.tol3bus.trans_dist::CleanEvict         1148383                       # Transaction distribution
system.tol3bus.trans_dist::ReadExReq           700737                       # Transaction distribution
system.tol3bus.trans_dist::ReadExResp          700737                       # Transaction distribution
system.tol3bus.trans_dist::ReadSharedReq      1655363                       # Transaction distribution
system.tol3bus.pkt_count_system.cpu.l2.mem_side::system.l3.cpu_side      7064306                       # Packet count per connected master and slave (bytes)
system.tol3bus.pkt_size_system.cpu.l2.mem_side::system.l3.cpu_side    231903680                       # Cumulative packet size per connected master and slave (bytes)
system.tol3bus.snoops                          263321                       # Total snoops (count)
system.tol3bus.snoopTraffic                  12777536                       # Total snoop traffic (bytes)
system.tol3bus.snoop_fanout::samples          2619421                       # Request fanout histogram
system.tol3bus.snoop_fanout::mean            0.000518                       # Request fanout histogram
system.tol3bus.snoop_fanout::stdev           0.022747                       # Request fanout histogram
system.tol3bus.snoop_fanout::underflows             0      0.00%      0.00% # Request fanout histogram
system.tol3bus.snoop_fanout::0                2618065     99.95%     99.95% # Request fanout histogram
system.tol3bus.snoop_fanout::1                   1356      0.05%    100.00% # Request fanout histogram
system.tol3bus.snoop_fanout::overflows              0      0.00%    100.00% # Request fanout histogram
system.tol3bus.snoop_fanout::min_value              0                       # Request fanout histogram
system.tol3bus.snoop_fanout::max_value              1                       # Request fanout histogram
system.tol3bus.snoop_fanout::total            2619421                       # Request fanout histogram
system.tol3bus.reqLayer0.occupancy         1989875133                       # Layer occupancy (ticks)
system.tol3bus.reqLayer0.utilization              0.2                       # Layer utilization (%)
system.tol3bus.respLayer0.occupancy        1569162600                       # Layer occupancy (ticks)
system.tol3bus.respLayer0.utilization             0.1                       # Layer utilization (%)

---------- End Simulation Statistics   ----------
