
---------- Begin Simulation Statistics ----------
sim_seconds                                  3.723540                       # Number of seconds simulated
sim_ticks                                3723539640426                       # Number of ticks simulated
final_tick                               147200527957500                       # Number of ticks from beginning of simulation (restored from checkpoints and never reset)
sim_freq                                 1000000000000                       # Frequency of simulated ticks
host_inst_rate                                 265648                       # Simulator instruction rate (inst/s)
host_op_rate                                   265648                       # Simulator op (including micro ops) rate (op/s)
host_tick_rate                              824292122                       # Simulator tick rate (ticks/s)
host_mem_usage                                2541816                       # Number of bytes of host memory used
host_seconds                                  4517.26                       # Real time elapsed on the host
sim_insts                                  1200000006                       # Number of instructions simulated
sim_ops                                    1200000006                       # Number of ops (including micro ops) simulated
system.voltage_domain.voltage                       1                       # Voltage in Volts
system.clk_domain.clock                          1000                       # Clock period in ticks
system.mem_ctrls0.pwrStateResidencyTicks::UNDEFINED 147200527957500                       # Cumulative time (in ticks) in various power states
system.mem_ctrls0.bytes_read::cpu.inst            128                       # Number of bytes read from this memory
system.mem_ctrls0.bytes_read::cpu.data            256                       # Number of bytes read from this memory
system.mem_ctrls0.bytes_read::switch_cpus.inst        20864                       # Number of bytes read from this memory
system.mem_ctrls0.bytes_read::switch_cpus.data    454684352                       # Number of bytes read from this memory
system.mem_ctrls0.bytes_read::switch_cpus_1.inst         6720                       # Number of bytes read from this memory
system.mem_ctrls0.bytes_read::switch_cpus_1.data     84685696                       # Number of bytes read from this memory
system.mem_ctrls0.bytes_read::total         539398016                       # Number of bytes read from this memory
system.mem_ctrls0.bytes_inst_read::cpu.inst          128                       # Number of instructions bytes read from this memory
system.mem_ctrls0.bytes_inst_read::switch_cpus.inst        20864                       # Number of instructions bytes read from this memory
system.mem_ctrls0.bytes_inst_read::switch_cpus_1.inst         6720                       # Number of instructions bytes read from this memory
system.mem_ctrls0.bytes_inst_read::total        27712                       # Number of instructions bytes read from this memory
system.mem_ctrls0.bytes_written::writebacks    280555328                       # Number of bytes written to this memory
system.mem_ctrls0.bytes_written::total      280555328                       # Number of bytes written to this memory
system.mem_ctrls0.num_reads::cpu.inst               2                       # Number of read requests responded to by this memory
system.mem_ctrls0.num_reads::cpu.data               4                       # Number of read requests responded to by this memory
system.mem_ctrls0.num_reads::switch_cpus.inst          326                       # Number of read requests responded to by this memory
system.mem_ctrls0.num_reads::switch_cpus.data      7104443                       # Number of read requests responded to by this memory
system.mem_ctrls0.num_reads::switch_cpus_1.inst          105                       # Number of read requests responded to by this memory
system.mem_ctrls0.num_reads::switch_cpus_1.data      1323214                       # Number of read requests responded to by this memory
system.mem_ctrls0.num_reads::total            8428094                       # Number of read requests responded to by this memory
system.mem_ctrls0.num_writes::writebacks      4383677                       # Number of write requests responded to by this memory
system.mem_ctrls0.num_writes::total           4383677                       # Number of write requests responded to by this memory
system.mem_ctrls0.bw_read::cpu.inst                34                       # Total read bandwidth from this memory (bytes/s)
system.mem_ctrls0.bw_read::cpu.data                69                       # Total read bandwidth from this memory (bytes/s)
system.mem_ctrls0.bw_read::switch_cpus.inst         5603                       # Total read bandwidth from this memory (bytes/s)
system.mem_ctrls0.bw_read::switch_cpus.data    122110786                       # Total read bandwidth from this memory (bytes/s)
system.mem_ctrls0.bw_read::switch_cpus_1.inst         1805                       # Total read bandwidth from this memory (bytes/s)
system.mem_ctrls0.bw_read::switch_cpus_1.data     22743331                       # Total read bandwidth from this memory (bytes/s)
system.mem_ctrls0.bw_read::total            144861628                       # Total read bandwidth from this memory (bytes/s)
system.mem_ctrls0.bw_inst_read::cpu.inst           34                       # Instruction read bandwidth from this memory (bytes/s)
system.mem_ctrls0.bw_inst_read::switch_cpus.inst         5603                       # Instruction read bandwidth from this memory (bytes/s)
system.mem_ctrls0.bw_inst_read::switch_cpus_1.inst         1805                       # Instruction read bandwidth from this memory (bytes/s)
system.mem_ctrls0.bw_inst_read::total            7442                       # Instruction read bandwidth from this memory (bytes/s)
system.mem_ctrls0.bw_write::writebacks       75346406                       # Write bandwidth from this memory (bytes/s)
system.mem_ctrls0.bw_write::total            75346406                       # Write bandwidth from this memory (bytes/s)
system.mem_ctrls0.bw_total::writebacks       75346406                       # Total bandwidth to/from this memory (bytes/s)
system.mem_ctrls0.bw_total::cpu.inst               34                       # Total bandwidth to/from this memory (bytes/s)
system.mem_ctrls0.bw_total::cpu.data               69                       # Total bandwidth to/from this memory (bytes/s)
system.mem_ctrls0.bw_total::switch_cpus.inst         5603                       # Total bandwidth to/from this memory (bytes/s)
system.mem_ctrls0.bw_total::switch_cpus.data    122110786                       # Total bandwidth to/from this memory (bytes/s)
system.mem_ctrls0.bw_total::switch_cpus_1.inst         1805                       # Total bandwidth to/from this memory (bytes/s)
system.mem_ctrls0.bw_total::switch_cpus_1.data     22743331                       # Total bandwidth to/from this memory (bytes/s)
system.mem_ctrls0.bw_total::total           220208034                       # Total bandwidth to/from this memory (bytes/s)
system.mem_ctrls0.readReqs                    8428094                       # Number of read requests accepted
system.mem_ctrls0.writeReqs                   4383677                       # Number of write requests accepted
system.mem_ctrls0.readBursts                  8428094                       # Number of DRAM read bursts, including those serviced by the write queue
system.mem_ctrls0.writeBursts                 4383677                       # Number of DRAM write bursts, including those merged in the write queue
system.mem_ctrls0.bytesReadDRAM             539396736                       # Total number of bytes read from DRAM
system.mem_ctrls0.bytesReadWrQ                   1280                       # Total number of bytes read from write queue
system.mem_ctrls0.bytesWritten              280553344                       # Total number of bytes written to DRAM
system.mem_ctrls0.bytesReadSys              539398016                       # Total read bytes from the system interface side
system.mem_ctrls0.bytesWrittenSys           280555328                       # Total written bytes from the system interface side
system.mem_ctrls0.servicedByWrQ                    20                       # Number of DRAM read bursts serviced by the write queue
system.mem_ctrls0.mergedWrBursts                    0                       # Number of DRAM write bursts merged with an existing one
system.mem_ctrls0.neitherReadNorWriteReqs            0                       # Number of requests that are neither read nor write
system.mem_ctrls0.perBankRdBursts::0           526552                       # Per bank write bursts
system.mem_ctrls0.perBankRdBursts::1           526330                       # Per bank write bursts
system.mem_ctrls0.perBankRdBursts::2           526977                       # Per bank write bursts
system.mem_ctrls0.perBankRdBursts::3           528301                       # Per bank write bursts
system.mem_ctrls0.perBankRdBursts::4           527904                       # Per bank write bursts
system.mem_ctrls0.perBankRdBursts::5           525685                       # Per bank write bursts
system.mem_ctrls0.perBankRdBursts::6           525437                       # Per bank write bursts
system.mem_ctrls0.perBankRdBursts::7           526750                       # Per bank write bursts
system.mem_ctrls0.perBankRdBursts::8           527248                       # Per bank write bursts
system.mem_ctrls0.perBankRdBursts::9           526765                       # Per bank write bursts
system.mem_ctrls0.perBankRdBursts::10          525500                       # Per bank write bursts
system.mem_ctrls0.perBankRdBursts::11          526854                       # Per bank write bursts
system.mem_ctrls0.perBankRdBursts::12          526662                       # Per bank write bursts
system.mem_ctrls0.perBankRdBursts::13          526876                       # Per bank write bursts
system.mem_ctrls0.perBankRdBursts::14          527363                       # Per bank write bursts
system.mem_ctrls0.perBankRdBursts::15          526870                       # Per bank write bursts
system.mem_ctrls0.perBankWrBursts::0           275479                       # Per bank write bursts
system.mem_ctrls0.perBankWrBursts::1           274158                       # Per bank write bursts
system.mem_ctrls0.perBankWrBursts::2           273598                       # Per bank write bursts
system.mem_ctrls0.perBankWrBursts::3           274167                       # Per bank write bursts
system.mem_ctrls0.perBankWrBursts::4           274196                       # Per bank write bursts
system.mem_ctrls0.perBankWrBursts::5           273895                       # Per bank write bursts
system.mem_ctrls0.perBankWrBursts::6           273728                       # Per bank write bursts
system.mem_ctrls0.perBankWrBursts::7           273410                       # Per bank write bursts
system.mem_ctrls0.perBankWrBursts::8           273069                       # Per bank write bursts
system.mem_ctrls0.perBankWrBursts::9           272968                       # Per bank write bursts
system.mem_ctrls0.perBankWrBursts::10          273905                       # Per bank write bursts
system.mem_ctrls0.perBankWrBursts::11          275442                       # Per bank write bursts
system.mem_ctrls0.perBankWrBursts::12          274236                       # Per bank write bursts
system.mem_ctrls0.perBankWrBursts::13          272988                       # Per bank write bursts
system.mem_ctrls0.perBankWrBursts::14          273468                       # Per bank write bursts
system.mem_ctrls0.perBankWrBursts::15          274939                       # Per bank write bursts
system.mem_ctrls0.numRdRetry                        0                       # Number of times read queue was full causing retry
system.mem_ctrls0.numWrRetry                        0                       # Number of times write queue was full causing retry
system.mem_ctrls0.totGap                 3723539565834                       # Total gap between requests
system.mem_ctrls0.readPktSize::0                    0                       # Read request sizes (log2)
system.mem_ctrls0.readPktSize::1                    0                       # Read request sizes (log2)
system.mem_ctrls0.readPktSize::2                    0                       # Read request sizes (log2)
system.mem_ctrls0.readPktSize::3                    0                       # Read request sizes (log2)
system.mem_ctrls0.readPktSize::4                    0                       # Read request sizes (log2)
system.mem_ctrls0.readPktSize::5                    0                       # Read request sizes (log2)
system.mem_ctrls0.readPktSize::6              8428094                       # Read request sizes (log2)
system.mem_ctrls0.writePktSize::0                   0                       # Write request sizes (log2)
system.mem_ctrls0.writePktSize::1                   0                       # Write request sizes (log2)
system.mem_ctrls0.writePktSize::2                   0                       # Write request sizes (log2)
system.mem_ctrls0.writePktSize::3                   0                       # Write request sizes (log2)
system.mem_ctrls0.writePktSize::4                   0                       # Write request sizes (log2)
system.mem_ctrls0.writePktSize::5                   0                       # Write request sizes (log2)
system.mem_ctrls0.writePktSize::6             4383677                       # Write request sizes (log2)
system.mem_ctrls0.rdQLenPdf::0                7999255                       # What read queue length does an incoming req see
system.mem_ctrls0.rdQLenPdf::1                 317543                       # What read queue length does an incoming req see
system.mem_ctrls0.rdQLenPdf::2                  97770                       # What read queue length does an incoming req see
system.mem_ctrls0.rdQLenPdf::3                  13505                       # What read queue length does an incoming req see
system.mem_ctrls0.rdQLenPdf::4                      1                       # What read queue length does an incoming req see
system.mem_ctrls0.rdQLenPdf::5                      0                       # What read queue length does an incoming req see
system.mem_ctrls0.rdQLenPdf::6                      0                       # What read queue length does an incoming req see
system.mem_ctrls0.rdQLenPdf::7                      0                       # What read queue length does an incoming req see
system.mem_ctrls0.rdQLenPdf::8                      0                       # What read queue length does an incoming req see
system.mem_ctrls0.rdQLenPdf::9                      0                       # What read queue length does an incoming req see
system.mem_ctrls0.rdQLenPdf::10                     0                       # What read queue length does an incoming req see
system.mem_ctrls0.rdQLenPdf::11                     0                       # What read queue length does an incoming req see
system.mem_ctrls0.rdQLenPdf::12                     0                       # What read queue length does an incoming req see
system.mem_ctrls0.rdQLenPdf::13                     0                       # What read queue length does an incoming req see
system.mem_ctrls0.rdQLenPdf::14                     0                       # What read queue length does an incoming req see
system.mem_ctrls0.rdQLenPdf::15                     0                       # What read queue length does an incoming req see
system.mem_ctrls0.rdQLenPdf::16                     0                       # What read queue length does an incoming req see
system.mem_ctrls0.rdQLenPdf::17                     0                       # What read queue length does an incoming req see
system.mem_ctrls0.rdQLenPdf::18                     0                       # What read queue length does an incoming req see
system.mem_ctrls0.rdQLenPdf::19                     0                       # What read queue length does an incoming req see
system.mem_ctrls0.rdQLenPdf::20                     0                       # What read queue length does an incoming req see
system.mem_ctrls0.rdQLenPdf::21                     0                       # What read queue length does an incoming req see
system.mem_ctrls0.rdQLenPdf::22                     0                       # What read queue length does an incoming req see
system.mem_ctrls0.rdQLenPdf::23                     0                       # What read queue length does an incoming req see
system.mem_ctrls0.rdQLenPdf::24                     0                       # What read queue length does an incoming req see
system.mem_ctrls0.rdQLenPdf::25                     0                       # What read queue length does an incoming req see
system.mem_ctrls0.rdQLenPdf::26                     0                       # What read queue length does an incoming req see
system.mem_ctrls0.rdQLenPdf::27                     0                       # What read queue length does an incoming req see
system.mem_ctrls0.rdQLenPdf::28                     0                       # What read queue length does an incoming req see
system.mem_ctrls0.rdQLenPdf::29                     0                       # What read queue length does an incoming req see
system.mem_ctrls0.rdQLenPdf::30                     0                       # What read queue length does an incoming req see
system.mem_ctrls0.rdQLenPdf::31                     0                       # What read queue length does an incoming req see
system.mem_ctrls0.wrQLenPdf::0                      2                       # What write queue length does an incoming req see
system.mem_ctrls0.wrQLenPdf::1                      2                       # What write queue length does an incoming req see
system.mem_ctrls0.wrQLenPdf::2                      2                       # What write queue length does an incoming req see
system.mem_ctrls0.wrQLenPdf::3                      2                       # What write queue length does an incoming req see
system.mem_ctrls0.wrQLenPdf::4                      2                       # What write queue length does an incoming req see
system.mem_ctrls0.wrQLenPdf::5                      2                       # What write queue length does an incoming req see
system.mem_ctrls0.wrQLenPdf::6                      2                       # What write queue length does an incoming req see
system.mem_ctrls0.wrQLenPdf::7                      2                       # What write queue length does an incoming req see
system.mem_ctrls0.wrQLenPdf::8                      2                       # What write queue length does an incoming req see
system.mem_ctrls0.wrQLenPdf::9                      2                       # What write queue length does an incoming req see
system.mem_ctrls0.wrQLenPdf::10                     2                       # What write queue length does an incoming req see
system.mem_ctrls0.wrQLenPdf::11                     2                       # What write queue length does an incoming req see
system.mem_ctrls0.wrQLenPdf::12                     2                       # What write queue length does an incoming req see
system.mem_ctrls0.wrQLenPdf::13                     2                       # What write queue length does an incoming req see
system.mem_ctrls0.wrQLenPdf::14                     2                       # What write queue length does an incoming req see
system.mem_ctrls0.wrQLenPdf::15                193523                       # What write queue length does an incoming req see
system.mem_ctrls0.wrQLenPdf::16                205542                       # What write queue length does an incoming req see
system.mem_ctrls0.wrQLenPdf::17                244642                       # What write queue length does an incoming req see
system.mem_ctrls0.wrQLenPdf::18                248304                       # What write queue length does an incoming req see
system.mem_ctrls0.wrQLenPdf::19                248765                       # What write queue length does an incoming req see
system.mem_ctrls0.wrQLenPdf::20                248895                       # What write queue length does an incoming req see
system.mem_ctrls0.wrQLenPdf::21                249020                       # What write queue length does an incoming req see
system.mem_ctrls0.wrQLenPdf::22                249306                       # What write queue length does an incoming req see
system.mem_ctrls0.wrQLenPdf::23                249626                       # What write queue length does an incoming req see
system.mem_ctrls0.wrQLenPdf::24                249505                       # What write queue length does an incoming req see
system.mem_ctrls0.wrQLenPdf::25                249341                       # What write queue length does an incoming req see
system.mem_ctrls0.wrQLenPdf::26                249300                       # What write queue length does an incoming req see
system.mem_ctrls0.wrQLenPdf::27                249349                       # What write queue length does an incoming req see
system.mem_ctrls0.wrQLenPdf::28                249431                       # What write queue length does an incoming req see
system.mem_ctrls0.wrQLenPdf::29                249671                       # What write queue length does an incoming req see
system.mem_ctrls0.wrQLenPdf::30                252149                       # What write queue length does an incoming req see
system.mem_ctrls0.wrQLenPdf::31                248662                       # What write queue length does an incoming req see
system.mem_ctrls0.wrQLenPdf::32                248378                       # What write queue length does an incoming req see
system.mem_ctrls0.wrQLenPdf::33                   190                       # What write queue length does an incoming req see
system.mem_ctrls0.wrQLenPdf::34                    35                       # What write queue length does an incoming req see
system.mem_ctrls0.wrQLenPdf::35                    12                       # What write queue length does an incoming req see
system.mem_ctrls0.wrQLenPdf::36                     1                       # What write queue length does an incoming req see
system.mem_ctrls0.wrQLenPdf::37                     0                       # What write queue length does an incoming req see
system.mem_ctrls0.wrQLenPdf::38                     0                       # What write queue length does an incoming req see
system.mem_ctrls0.wrQLenPdf::39                     0                       # What write queue length does an incoming req see
system.mem_ctrls0.wrQLenPdf::40                     0                       # What write queue length does an incoming req see
system.mem_ctrls0.wrQLenPdf::41                     0                       # What write queue length does an incoming req see
system.mem_ctrls0.wrQLenPdf::42                     0                       # What write queue length does an incoming req see
system.mem_ctrls0.wrQLenPdf::43                     0                       # What write queue length does an incoming req see
system.mem_ctrls0.wrQLenPdf::44                     0                       # What write queue length does an incoming req see
system.mem_ctrls0.wrQLenPdf::45                     0                       # What write queue length does an incoming req see
system.mem_ctrls0.wrQLenPdf::46                     0                       # What write queue length does an incoming req see
system.mem_ctrls0.wrQLenPdf::47                     0                       # What write queue length does an incoming req see
system.mem_ctrls0.wrQLenPdf::48                     0                       # What write queue length does an incoming req see
system.mem_ctrls0.wrQLenPdf::49                     0                       # What write queue length does an incoming req see
system.mem_ctrls0.wrQLenPdf::50                     0                       # What write queue length does an incoming req see
system.mem_ctrls0.wrQLenPdf::51                     0                       # What write queue length does an incoming req see
system.mem_ctrls0.wrQLenPdf::52                     0                       # What write queue length does an incoming req see
system.mem_ctrls0.wrQLenPdf::53                     0                       # What write queue length does an incoming req see
system.mem_ctrls0.wrQLenPdf::54                     0                       # What write queue length does an incoming req see
system.mem_ctrls0.wrQLenPdf::55                     0                       # What write queue length does an incoming req see
system.mem_ctrls0.wrQLenPdf::56                     0                       # What write queue length does an incoming req see
system.mem_ctrls0.wrQLenPdf::57                     0                       # What write queue length does an incoming req see
system.mem_ctrls0.wrQLenPdf::58                     0                       # What write queue length does an incoming req see
system.mem_ctrls0.wrQLenPdf::59                     0                       # What write queue length does an incoming req see
system.mem_ctrls0.wrQLenPdf::60                     0                       # What write queue length does an incoming req see
system.mem_ctrls0.wrQLenPdf::61                     0                       # What write queue length does an incoming req see
system.mem_ctrls0.wrQLenPdf::62                     0                       # What write queue length does an incoming req see
system.mem_ctrls0.wrQLenPdf::63                     0                       # What write queue length does an incoming req see
system.mem_ctrls0.bytesPerActivate::samples      9387026                       # Bytes accessed per row activation
system.mem_ctrls0.bytesPerActivate::mean    87.349156                       # Bytes accessed per row activation
system.mem_ctrls0.bytesPerActivate::gmean    79.546559                       # Bytes accessed per row activation
system.mem_ctrls0.bytesPerActivate::stdev    48.175557                       # Bytes accessed per row activation
system.mem_ctrls0.bytesPerActivate::0-127      6954496     74.09%     74.09% # Bytes accessed per row activation
system.mem_ctrls0.bytesPerActivate::128-255      2260958     24.09%     98.17% # Bytes accessed per row activation
system.mem_ctrls0.bytesPerActivate::256-383       144239      1.54%     99.71% # Bytes accessed per row activation
system.mem_ctrls0.bytesPerActivate::384-511        19292      0.21%     99.91% # Bytes accessed per row activation
system.mem_ctrls0.bytesPerActivate::512-639         4128      0.04%     99.96% # Bytes accessed per row activation
system.mem_ctrls0.bytesPerActivate::640-767         1845      0.02%     99.98% # Bytes accessed per row activation
system.mem_ctrls0.bytesPerActivate::768-895         1614      0.02%    100.00% # Bytes accessed per row activation
system.mem_ctrls0.bytesPerActivate::896-1023          357      0.00%    100.00% # Bytes accessed per row activation
system.mem_ctrls0.bytesPerActivate::1024-1151           97      0.00%    100.00% # Bytes accessed per row activation
system.mem_ctrls0.bytesPerActivate::total      9387026                       # Bytes accessed per row activation
system.mem_ctrls0.rdPerTurnAround::samples       248200                       # Reads before turning the bus around for writes
system.mem_ctrls0.rdPerTurnAround::mean     33.956700                       # Reads before turning the bus around for writes
system.mem_ctrls0.rdPerTurnAround::stdev    56.813228                       # Reads before turning the bus around for writes
system.mem_ctrls0.rdPerTurnAround::0-1023       248198    100.00%    100.00% # Reads before turning the bus around for writes
system.mem_ctrls0.rdPerTurnAround::1024-2047            1      0.00%    100.00% # Reads before turning the bus around for writes
system.mem_ctrls0.rdPerTurnAround::27648-28671            1      0.00%    100.00% # Reads before turning the bus around for writes
system.mem_ctrls0.rdPerTurnAround::total       248200                       # Reads before turning the bus around for writes
system.mem_ctrls0.wrPerTurnAround::samples       248200                       # Writes before turning the bus around for reads
system.mem_ctrls0.wrPerTurnAround::mean     17.661749                       # Writes before turning the bus around for reads
system.mem_ctrls0.wrPerTurnAround::gmean    17.642035                       # Writes before turning the bus around for reads
system.mem_ctrls0.wrPerTurnAround::stdev     0.819576                       # Writes before turning the bus around for reads
system.mem_ctrls0.wrPerTurnAround::16           42136     16.98%     16.98% # Writes before turning the bus around for reads
system.mem_ctrls0.wrPerTurnAround::17           11426      4.60%     21.58% # Writes before turning the bus around for reads
system.mem_ctrls0.wrPerTurnAround::18          184382     74.29%     95.87% # Writes before turning the bus around for reads
system.mem_ctrls0.wrPerTurnAround::19            8940      3.60%     99.47% # Writes before turning the bus around for reads
system.mem_ctrls0.wrPerTurnAround::20            1175      0.47%     99.94% # Writes before turning the bus around for reads
system.mem_ctrls0.wrPerTurnAround::21             116      0.05%     99.99% # Writes before turning the bus around for reads
system.mem_ctrls0.wrPerTurnAround::22              21      0.01%    100.00% # Writes before turning the bus around for reads
system.mem_ctrls0.wrPerTurnAround::23               3      0.00%    100.00% # Writes before turning the bus around for reads
system.mem_ctrls0.wrPerTurnAround::25               1      0.00%    100.00% # Writes before turning the bus around for reads
system.mem_ctrls0.wrPerTurnAround::total       248200                       # Writes before turning the bus around for reads
system.mem_ctrls0.totQLat                226935154630                       # Total ticks spent queuing
system.mem_ctrls0.totMemAccLat           384961542130                       # Total ticks spent from burst creation until serviced by the DRAM
system.mem_ctrls0.totBusLat               42140370000                       # Total ticks spent in databus transfers
system.mem_ctrls0.avgQLat                    26926.10                       # Average queueing delay per DRAM burst
system.mem_ctrls0.avgBusLat                   5000.00                       # Average bus latency per DRAM burst
system.mem_ctrls0.avgMemAccLat               45676.10                       # Average memory access latency per DRAM burst
system.mem_ctrls0.avgRdBW                      144.86                       # Average DRAM read bandwidth in MiByte/s
system.mem_ctrls0.avgWrBW                       75.35                       # Average achieved write bandwidth in MiByte/s
system.mem_ctrls0.avgRdBWSys                   144.86                       # Average system read bandwidth in MiByte/s
system.mem_ctrls0.avgWrBWSys                    75.35                       # Average system write bandwidth in MiByte/s
system.mem_ctrls0.peakBW                     12800.00                       # Theoretical peak bandwidth in MiByte/s
system.mem_ctrls0.busUtil                        1.72                       # Data bus utilization in percentage
system.mem_ctrls0.busUtilRead                    1.13                       # Data bus utilization in percentage for reads
system.mem_ctrls0.busUtilWrite                   0.59                       # Data bus utilization in percentage for writes
system.mem_ctrls0.avgRdQLen                      1.03                       # Average read queue length when enqueuing
system.mem_ctrls0.avgWrQLen                     24.59                       # Average write queue length when enqueuing
system.mem_ctrls0.readRowHits                 2632079                       # Number of row buffer hits during reads
system.mem_ctrls0.writeRowHits                 792608                       # Number of row buffer hits during writes
system.mem_ctrls0.readRowHitRate                31.23                       # Row buffer hit rate for reads
system.mem_ctrls0.writeRowHitRate               18.08                       # Row buffer hit rate for writes
system.mem_ctrls0.avgGap                    290634.26                       # Average gap between requests
system.mem_ctrls0.pageHitRate                   26.73                       # Row buffer hit rate, read and write combined
system.mem_ctrls0_0.actEnergy             33503321880                       # Energy for activate commands per rank (pJ)
system.mem_ctrls0_0.preEnergy             17807422710                       # Energy for precharge commands per rank (pJ)
system.mem_ctrls0_0.readEnergy            30087503040                       # Energy for read commands per rank (pJ)
system.mem_ctrls0_0.writeEnergy           11445533820                       # Energy for write commands per rank (pJ)
system.mem_ctrls0_0.refreshEnergy        293136567360.000061                       # Energy for refresh commands per rank (pJ)
system.mem_ctrls0_0.actBackEnergy        233266691700                       # Energy for active background per rank (pJ)
system.mem_ctrls0_0.preBackEnergy          7706565600                       # Energy for precharge background per rank (pJ)
system.mem_ctrls0_0.actPowerDownEnergy   1241313235260                       # Energy for active power-down per rank (pJ)
system.mem_ctrls0_0.prePowerDownEnergy   150519035520                       # Energy for precharge power-down per rank (pJ)
system.mem_ctrls0_0.selfRefreshEnergy     23827093980                       # Energy for self refresh per rank (pJ)
system.mem_ctrls0_0.totalEnergy          2042643007200                       # Total energy per rank (pJ)
system.mem_ctrls0_0.averagePower           548.575601                       # Core power per rank (mW)
system.mem_ctrls0_0.totalIdleTime        3191861936246                       # Total Idle time Per DRAM Rank
system.mem_ctrls0_0.memoryStateTime::IDLE   5242710339                       # Time in different power states
system.mem_ctrls0_0.memoryStateTime::REF 124059442000                       # Time in different power states
system.mem_ctrls0_0.memoryStateTime::SREF  77699066368                       # Time in different power states
system.mem_ctrls0_0.memoryStateTime::PRE_PDN 391978353921                       # Time in different power states
system.mem_ctrls0_0.memoryStateTime::ACT 402375430404                       # Time in different power states
system.mem_ctrls0_0.memoryStateTime::ACT_PDN 2722184637394                       # Time in different power states
system.mem_ctrls0_1.actEnergy             33520093740                       # Energy for activate commands per rank (pJ)
system.mem_ctrls0_1.preEnergy             17816340960                       # Energy for precharge commands per rank (pJ)
system.mem_ctrls0_1.readEnergy            30088945320                       # Energy for read commands per rank (pJ)
system.mem_ctrls0_1.writeEnergy           11437098300                       # Energy for write commands per rank (pJ)
system.mem_ctrls0_1.refreshEnergy        292878418560.000061                       # Energy for refresh commands per rank (pJ)
system.mem_ctrls0_1.actBackEnergy        231865430490                       # Energy for active background per rank (pJ)
system.mem_ctrls0_1.preBackEnergy          7676130720                       # Energy for precharge background per rank (pJ)
system.mem_ctrls0_1.actPowerDownEnergy   1243827452250                       # Energy for active power-down per rank (pJ)
system.mem_ctrls0_1.prePowerDownEnergy   149467997280                       # Energy for precharge power-down per rank (pJ)
system.mem_ctrls0_1.selfRefreshEnergy     23696847465                       # Energy for self refresh per rank (pJ)
system.mem_ctrls0_1.totalEnergy          2042306480595                       # Total energy per rank (pJ)
system.mem_ctrls0_1.averagePower           548.485224                       # Core power per rank (mW)
system.mem_ctrls0_1.totalIdleTime        3195015681343                       # Total Idle time Per DRAM Rank
system.mem_ctrls0_1.memoryStateTime::IDLE   5125262863                       # Time in different power states
system.mem_ctrls0_1.memoryStateTime::REF 123947770000                       # Time in different power states
system.mem_ctrls0_1.memoryStateTime::SREF  78070956404                       # Time in different power states
system.mem_ctrls0_1.memoryStateTime::PRE_PDN 389245090571                       # Time in different power states
system.mem_ctrls0_1.memoryStateTime::ACT 399450926220                       # Time in different power states
system.mem_ctrls0_1.memoryStateTime::ACT_PDN 2727699634368                       # Time in different power states
system.mem_ctrls1.pwrStateResidencyTicks::UNDEFINED 147200527957500                       # Cumulative time (in ticks) in various power states
system.mem_ctrls1.bytes_read::cpu.inst             64                       # Number of bytes read from this memory
system.mem_ctrls1.bytes_read::cpu.data             64                       # Number of bytes read from this memory
system.mem_ctrls1.bytes_read::switch_cpus.inst        20288                       # Number of bytes read from this memory
system.mem_ctrls1.bytes_read::switch_cpus.data    454748096                       # Number of bytes read from this memory
system.mem_ctrls1.bytes_read::switch_cpus_1.inst         6656                       # Number of bytes read from this memory
system.mem_ctrls1.bytes_read::switch_cpus_1.data     84692864                       # Number of bytes read from this memory
system.mem_ctrls1.bytes_read::total         539468032                       # Number of bytes read from this memory
system.mem_ctrls1.bytes_inst_read::cpu.inst           64                       # Number of instructions bytes read from this memory
system.mem_ctrls1.bytes_inst_read::switch_cpus.inst        20288                       # Number of instructions bytes read from this memory
system.mem_ctrls1.bytes_inst_read::switch_cpus_1.inst         6656                       # Number of instructions bytes read from this memory
system.mem_ctrls1.bytes_inst_read::total        27008                       # Number of instructions bytes read from this memory
system.mem_ctrls1.bytes_written::writebacks    280562240                       # Number of bytes written to this memory
system.mem_ctrls1.bytes_written::total      280562240                       # Number of bytes written to this memory
system.mem_ctrls1.num_reads::cpu.inst               1                       # Number of read requests responded to by this memory
system.mem_ctrls1.num_reads::cpu.data               1                       # Number of read requests responded to by this memory
system.mem_ctrls1.num_reads::switch_cpus.inst          317                       # Number of read requests responded to by this memory
system.mem_ctrls1.num_reads::switch_cpus.data      7105439                       # Number of read requests responded to by this memory
system.mem_ctrls1.num_reads::switch_cpus_1.inst          104                       # Number of read requests responded to by this memory
system.mem_ctrls1.num_reads::switch_cpus_1.data      1323326                       # Number of read requests responded to by this memory
system.mem_ctrls1.num_reads::total            8429188                       # Number of read requests responded to by this memory
system.mem_ctrls1.num_writes::writebacks      4383785                       # Number of write requests responded to by this memory
system.mem_ctrls1.num_writes::total           4383785                       # Number of write requests responded to by this memory
system.mem_ctrls1.bw_read::cpu.inst                17                       # Total read bandwidth from this memory (bytes/s)
system.mem_ctrls1.bw_read::cpu.data                17                       # Total read bandwidth from this memory (bytes/s)
system.mem_ctrls1.bw_read::switch_cpus.inst         5449                       # Total read bandwidth from this memory (bytes/s)
system.mem_ctrls1.bw_read::switch_cpus.data    122127905                       # Total read bandwidth from this memory (bytes/s)
system.mem_ctrls1.bw_read::switch_cpus_1.inst         1788                       # Total read bandwidth from this memory (bytes/s)
system.mem_ctrls1.bw_read::switch_cpus_1.data     22745256                       # Total read bandwidth from this memory (bytes/s)
system.mem_ctrls1.bw_read::total            144880432                       # Total read bandwidth from this memory (bytes/s)
system.mem_ctrls1.bw_inst_read::cpu.inst           17                       # Instruction read bandwidth from this memory (bytes/s)
system.mem_ctrls1.bw_inst_read::switch_cpus.inst         5449                       # Instruction read bandwidth from this memory (bytes/s)
system.mem_ctrls1.bw_inst_read::switch_cpus_1.inst         1788                       # Instruction read bandwidth from this memory (bytes/s)
system.mem_ctrls1.bw_inst_read::total            7253                       # Instruction read bandwidth from this memory (bytes/s)
system.mem_ctrls1.bw_write::writebacks       75348262                       # Write bandwidth from this memory (bytes/s)
system.mem_ctrls1.bw_write::total            75348262                       # Write bandwidth from this memory (bytes/s)
system.mem_ctrls1.bw_total::writebacks       75348262                       # Total bandwidth to/from this memory (bytes/s)
system.mem_ctrls1.bw_total::cpu.inst               17                       # Total bandwidth to/from this memory (bytes/s)
system.mem_ctrls1.bw_total::cpu.data               17                       # Total bandwidth to/from this memory (bytes/s)
system.mem_ctrls1.bw_total::switch_cpus.inst         5449                       # Total bandwidth to/from this memory (bytes/s)
system.mem_ctrls1.bw_total::switch_cpus.data    122127905                       # Total bandwidth to/from this memory (bytes/s)
system.mem_ctrls1.bw_total::switch_cpus_1.inst         1788                       # Total bandwidth to/from this memory (bytes/s)
system.mem_ctrls1.bw_total::switch_cpus_1.data     22745256                       # Total bandwidth to/from this memory (bytes/s)
system.mem_ctrls1.bw_total::total           220228694                       # Total bandwidth to/from this memory (bytes/s)
system.mem_ctrls1.readReqs                    8429188                       # Number of read requests accepted
system.mem_ctrls1.writeReqs                   4383785                       # Number of write requests accepted
system.mem_ctrls1.readBursts                  8429188                       # Number of DRAM read bursts, including those serviced by the write queue
system.mem_ctrls1.writeBursts                 4383785                       # Number of DRAM write bursts, including those merged in the write queue
system.mem_ctrls1.bytesReadDRAM             539466624                       # Total number of bytes read from DRAM
system.mem_ctrls1.bytesReadWrQ                   1408                       # Total number of bytes read from write queue
system.mem_ctrls1.bytesWritten              280561152                       # Total number of bytes written to DRAM
system.mem_ctrls1.bytesReadSys              539468032                       # Total read bytes from the system interface side
system.mem_ctrls1.bytesWrittenSys           280562240                       # Total written bytes from the system interface side
system.mem_ctrls1.servicedByWrQ                    22                       # Number of DRAM read bursts serviced by the write queue
system.mem_ctrls1.mergedWrBursts                    0                       # Number of DRAM write bursts merged with an existing one
system.mem_ctrls1.neitherReadNorWriteReqs            0                       # Number of requests that are neither read nor write
system.mem_ctrls1.perBankRdBursts::0           526177                       # Per bank write bursts
system.mem_ctrls1.perBankRdBursts::1           526799                       # Per bank write bursts
system.mem_ctrls1.perBankRdBursts::2           526550                       # Per bank write bursts
system.mem_ctrls1.perBankRdBursts::3           528891                       # Per bank write bursts
system.mem_ctrls1.perBankRdBursts::4           527748                       # Per bank write bursts
system.mem_ctrls1.perBankRdBursts::5           525867                       # Per bank write bursts
system.mem_ctrls1.perBankRdBursts::6           525845                       # Per bank write bursts
system.mem_ctrls1.perBankRdBursts::7           526520                       # Per bank write bursts
system.mem_ctrls1.perBankRdBursts::8           527737                       # Per bank write bursts
system.mem_ctrls1.perBankRdBursts::9           526291                       # Per bank write bursts
system.mem_ctrls1.perBankRdBursts::10          525746                       # Per bank write bursts
system.mem_ctrls1.perBankRdBursts::11          526663                       # Per bank write bursts
system.mem_ctrls1.perBankRdBursts::12          526788                       # Per bank write bursts
system.mem_ctrls1.perBankRdBursts::13          526790                       # Per bank write bursts
system.mem_ctrls1.perBankRdBursts::14          527573                       # Per bank write bursts
system.mem_ctrls1.perBankRdBursts::15          527181                       # Per bank write bursts
system.mem_ctrls1.perBankWrBursts::0           275382                       # Per bank write bursts
system.mem_ctrls1.perBankWrBursts::1           274336                       # Per bank write bursts
system.mem_ctrls1.perBankWrBursts::2           273409                       # Per bank write bursts
system.mem_ctrls1.perBankWrBursts::3           274246                       # Per bank write bursts
system.mem_ctrls1.perBankWrBursts::4           274204                       # Per bank write bursts
system.mem_ctrls1.perBankWrBursts::5           273944                       # Per bank write bursts
system.mem_ctrls1.perBankWrBursts::6           273831                       # Per bank write bursts
system.mem_ctrls1.perBankWrBursts::7           273290                       # Per bank write bursts
system.mem_ctrls1.perBankWrBursts::8           273233                       # Per bank write bursts
system.mem_ctrls1.perBankWrBursts::9           272895                       # Per bank write bursts
system.mem_ctrls1.perBankWrBursts::10          273930                       # Per bank write bursts
system.mem_ctrls1.perBankWrBursts::11          275423                       # Per bank write bursts
system.mem_ctrls1.perBankWrBursts::12          274273                       # Per bank write bursts
system.mem_ctrls1.perBankWrBursts::13          272988                       # Per bank write bursts
system.mem_ctrls1.perBankWrBursts::14          273373                       # Per bank write bursts
system.mem_ctrls1.perBankWrBursts::15          275011                       # Per bank write bursts
system.mem_ctrls1.numRdRetry                        0                       # Number of times read queue was full causing retry
system.mem_ctrls1.numWrRetry                        0                       # Number of times write queue was full causing retry
system.mem_ctrls1.totGap                 3723539173920                       # Total gap between requests
system.mem_ctrls1.readPktSize::0                    0                       # Read request sizes (log2)
system.mem_ctrls1.readPktSize::1                    0                       # Read request sizes (log2)
system.mem_ctrls1.readPktSize::2                    0                       # Read request sizes (log2)
system.mem_ctrls1.readPktSize::3                    0                       # Read request sizes (log2)
system.mem_ctrls1.readPktSize::4                    0                       # Read request sizes (log2)
system.mem_ctrls1.readPktSize::5                    0                       # Read request sizes (log2)
system.mem_ctrls1.readPktSize::6              8429188                       # Read request sizes (log2)
system.mem_ctrls1.writePktSize::0                   0                       # Write request sizes (log2)
system.mem_ctrls1.writePktSize::1                   0                       # Write request sizes (log2)
system.mem_ctrls1.writePktSize::2                   0                       # Write request sizes (log2)
system.mem_ctrls1.writePktSize::3                   0                       # Write request sizes (log2)
system.mem_ctrls1.writePktSize::4                   0                       # Write request sizes (log2)
system.mem_ctrls1.writePktSize::5                   0                       # Write request sizes (log2)
system.mem_ctrls1.writePktSize::6             4383785                       # Write request sizes (log2)
system.mem_ctrls1.rdQLenPdf::0                8000460                       # What read queue length does an incoming req see
system.mem_ctrls1.rdQLenPdf::1                 317213                       # What read queue length does an incoming req see
system.mem_ctrls1.rdQLenPdf::2                  97987                       # What read queue length does an incoming req see
system.mem_ctrls1.rdQLenPdf::3                  13506                       # What read queue length does an incoming req see
system.mem_ctrls1.rdQLenPdf::4                      0                       # What read queue length does an incoming req see
system.mem_ctrls1.rdQLenPdf::5                      0                       # What read queue length does an incoming req see
system.mem_ctrls1.rdQLenPdf::6                      0                       # What read queue length does an incoming req see
system.mem_ctrls1.rdQLenPdf::7                      0                       # What read queue length does an incoming req see
system.mem_ctrls1.rdQLenPdf::8                      0                       # What read queue length does an incoming req see
system.mem_ctrls1.rdQLenPdf::9                      0                       # What read queue length does an incoming req see
system.mem_ctrls1.rdQLenPdf::10                     0                       # What read queue length does an incoming req see
system.mem_ctrls1.rdQLenPdf::11                     0                       # What read queue length does an incoming req see
system.mem_ctrls1.rdQLenPdf::12                     0                       # What read queue length does an incoming req see
system.mem_ctrls1.rdQLenPdf::13                     0                       # What read queue length does an incoming req see
system.mem_ctrls1.rdQLenPdf::14                     0                       # What read queue length does an incoming req see
system.mem_ctrls1.rdQLenPdf::15                     0                       # What read queue length does an incoming req see
system.mem_ctrls1.rdQLenPdf::16                     0                       # What read queue length does an incoming req see
system.mem_ctrls1.rdQLenPdf::17                     0                       # What read queue length does an incoming req see
system.mem_ctrls1.rdQLenPdf::18                     0                       # What read queue length does an incoming req see
system.mem_ctrls1.rdQLenPdf::19                     0                       # What read queue length does an incoming req see
system.mem_ctrls1.rdQLenPdf::20                     0                       # What read queue length does an incoming req see
system.mem_ctrls1.rdQLenPdf::21                     0                       # What read queue length does an incoming req see
system.mem_ctrls1.rdQLenPdf::22                     0                       # What read queue length does an incoming req see
system.mem_ctrls1.rdQLenPdf::23                     0                       # What read queue length does an incoming req see
system.mem_ctrls1.rdQLenPdf::24                     0                       # What read queue length does an incoming req see
system.mem_ctrls1.rdQLenPdf::25                     0                       # What read queue length does an incoming req see
system.mem_ctrls1.rdQLenPdf::26                     0                       # What read queue length does an incoming req see
system.mem_ctrls1.rdQLenPdf::27                     0                       # What read queue length does an incoming req see
system.mem_ctrls1.rdQLenPdf::28                     0                       # What read queue length does an incoming req see
system.mem_ctrls1.rdQLenPdf::29                     0                       # What read queue length does an incoming req see
system.mem_ctrls1.rdQLenPdf::30                     0                       # What read queue length does an incoming req see
system.mem_ctrls1.rdQLenPdf::31                     0                       # What read queue length does an incoming req see
system.mem_ctrls1.wrQLenPdf::0                      2                       # What write queue length does an incoming req see
system.mem_ctrls1.wrQLenPdf::1                      2                       # What write queue length does an incoming req see
system.mem_ctrls1.wrQLenPdf::2                      2                       # What write queue length does an incoming req see
system.mem_ctrls1.wrQLenPdf::3                      2                       # What write queue length does an incoming req see
system.mem_ctrls1.wrQLenPdf::4                      2                       # What write queue length does an incoming req see
system.mem_ctrls1.wrQLenPdf::5                      2                       # What write queue length does an incoming req see
system.mem_ctrls1.wrQLenPdf::6                      2                       # What write queue length does an incoming req see
system.mem_ctrls1.wrQLenPdf::7                      2                       # What write queue length does an incoming req see
system.mem_ctrls1.wrQLenPdf::8                      2                       # What write queue length does an incoming req see
system.mem_ctrls1.wrQLenPdf::9                      2                       # What write queue length does an incoming req see
system.mem_ctrls1.wrQLenPdf::10                     2                       # What write queue length does an incoming req see
system.mem_ctrls1.wrQLenPdf::11                     2                       # What write queue length does an incoming req see
system.mem_ctrls1.wrQLenPdf::12                     2                       # What write queue length does an incoming req see
system.mem_ctrls1.wrQLenPdf::13                     2                       # What write queue length does an incoming req see
system.mem_ctrls1.wrQLenPdf::14                     2                       # What write queue length does an incoming req see
system.mem_ctrls1.wrQLenPdf::15                193095                       # What write queue length does an incoming req see
system.mem_ctrls1.wrQLenPdf::16                205434                       # What write queue length does an incoming req see
system.mem_ctrls1.wrQLenPdf::17                244682                       # What write queue length does an incoming req see
system.mem_ctrls1.wrQLenPdf::18                248292                       # What write queue length does an incoming req see
system.mem_ctrls1.wrQLenPdf::19                248765                       # What write queue length does an incoming req see
system.mem_ctrls1.wrQLenPdf::20                248897                       # What write queue length does an incoming req see
system.mem_ctrls1.wrQLenPdf::21                249042                       # What write queue length does an incoming req see
system.mem_ctrls1.wrQLenPdf::22                249378                       # What write queue length does an incoming req see
system.mem_ctrls1.wrQLenPdf::23                249686                       # What write queue length does an incoming req see
system.mem_ctrls1.wrQLenPdf::24                249558                       # What write queue length does an incoming req see
system.mem_ctrls1.wrQLenPdf::25                249389                       # What write queue length does an incoming req see
system.mem_ctrls1.wrQLenPdf::26                249378                       # What write queue length does an incoming req see
system.mem_ctrls1.wrQLenPdf::27                249370                       # What write queue length does an incoming req see
system.mem_ctrls1.wrQLenPdf::28                249461                       # What write queue length does an incoming req see
system.mem_ctrls1.wrQLenPdf::29                249746                       # What write queue length does an incoming req see
system.mem_ctrls1.wrQLenPdf::30                252215                       # What write queue length does an incoming req see
system.mem_ctrls1.wrQLenPdf::31                248695                       # What write queue length does an incoming req see
system.mem_ctrls1.wrQLenPdf::32                248426                       # What write queue length does an incoming req see
system.mem_ctrls1.wrQLenPdf::33                   215                       # What write queue length does an incoming req see
system.mem_ctrls1.wrQLenPdf::34                    27                       # What write queue length does an incoming req see
system.mem_ctrls1.wrQLenPdf::35                     4                       # What write queue length does an incoming req see
system.mem_ctrls1.wrQLenPdf::36                     0                       # What write queue length does an incoming req see
system.mem_ctrls1.wrQLenPdf::37                     0                       # What write queue length does an incoming req see
system.mem_ctrls1.wrQLenPdf::38                     0                       # What write queue length does an incoming req see
system.mem_ctrls1.wrQLenPdf::39                     0                       # What write queue length does an incoming req see
system.mem_ctrls1.wrQLenPdf::40                     0                       # What write queue length does an incoming req see
system.mem_ctrls1.wrQLenPdf::41                     0                       # What write queue length does an incoming req see
system.mem_ctrls1.wrQLenPdf::42                     0                       # What write queue length does an incoming req see
system.mem_ctrls1.wrQLenPdf::43                     0                       # What write queue length does an incoming req see
system.mem_ctrls1.wrQLenPdf::44                     0                       # What write queue length does an incoming req see
system.mem_ctrls1.wrQLenPdf::45                     0                       # What write queue length does an incoming req see
system.mem_ctrls1.wrQLenPdf::46                     0                       # What write queue length does an incoming req see
system.mem_ctrls1.wrQLenPdf::47                     0                       # What write queue length does an incoming req see
system.mem_ctrls1.wrQLenPdf::48                     0                       # What write queue length does an incoming req see
system.mem_ctrls1.wrQLenPdf::49                     0                       # What write queue length does an incoming req see
system.mem_ctrls1.wrQLenPdf::50                     0                       # What write queue length does an incoming req see
system.mem_ctrls1.wrQLenPdf::51                     0                       # What write queue length does an incoming req see
system.mem_ctrls1.wrQLenPdf::52                     0                       # What write queue length does an incoming req see
system.mem_ctrls1.wrQLenPdf::53                     0                       # What write queue length does an incoming req see
system.mem_ctrls1.wrQLenPdf::54                     0                       # What write queue length does an incoming req see
system.mem_ctrls1.wrQLenPdf::55                     0                       # What write queue length does an incoming req see
system.mem_ctrls1.wrQLenPdf::56                     0                       # What write queue length does an incoming req see
system.mem_ctrls1.wrQLenPdf::57                     0                       # What write queue length does an incoming req see
system.mem_ctrls1.wrQLenPdf::58                     0                       # What write queue length does an incoming req see
system.mem_ctrls1.wrQLenPdf::59                     0                       # What write queue length does an incoming req see
system.mem_ctrls1.wrQLenPdf::60                     0                       # What write queue length does an incoming req see
system.mem_ctrls1.wrQLenPdf::61                     0                       # What write queue length does an incoming req see
system.mem_ctrls1.wrQLenPdf::62                     0                       # What write queue length does an incoming req see
system.mem_ctrls1.wrQLenPdf::63                     0                       # What write queue length does an incoming req see
system.mem_ctrls1.bytesPerActivate::samples      9387879                       # Bytes accessed per row activation
system.mem_ctrls1.bytesPerActivate::mean    87.349523                       # Bytes accessed per row activation
system.mem_ctrls1.bytesPerActivate::gmean    79.545903                       # Bytes accessed per row activation
system.mem_ctrls1.bytesPerActivate::stdev    48.175643                       # Bytes accessed per row activation
system.mem_ctrls1.bytesPerActivate::0-127      6955643     74.09%     74.09% # Bytes accessed per row activation
system.mem_ctrls1.bytesPerActivate::128-255      2260673     24.08%     98.17% # Bytes accessed per row activation
system.mem_ctrls1.bytesPerActivate::256-383       144261      1.54%     99.71% # Bytes accessed per row activation
system.mem_ctrls1.bytesPerActivate::384-511        19303      0.21%     99.91% # Bytes accessed per row activation
system.mem_ctrls1.bytesPerActivate::512-639         4060      0.04%     99.96% # Bytes accessed per row activation
system.mem_ctrls1.bytesPerActivate::640-767         1880      0.02%     99.98% # Bytes accessed per row activation
system.mem_ctrls1.bytesPerActivate::768-895         1620      0.02%    100.00% # Bytes accessed per row activation
system.mem_ctrls1.bytesPerActivate::896-1023          342      0.00%    100.00% # Bytes accessed per row activation
system.mem_ctrls1.bytesPerActivate::1024-1151           97      0.00%    100.00% # Bytes accessed per row activation
system.mem_ctrls1.bytesPerActivate::total      9387879                       # Bytes accessed per row activation
system.mem_ctrls1.rdPerTurnAround::samples       248241                       # Reads before turning the bus around for writes
system.mem_ctrls1.rdPerTurnAround::mean     33.955555                       # Reads before turning the bus around for writes
system.mem_ctrls1.rdPerTurnAround::stdev    56.658020                       # Reads before turning the bus around for writes
system.mem_ctrls1.rdPerTurnAround::0-1023       248236    100.00%    100.00% # Reads before turning the bus around for writes
system.mem_ctrls1.rdPerTurnAround::1024-2047            4      0.00%    100.00% # Reads before turning the bus around for writes
system.mem_ctrls1.rdPerTurnAround::27648-28671            1      0.00%    100.00% # Reads before turning the bus around for writes
system.mem_ctrls1.rdPerTurnAround::total       248241                       # Reads before turning the bus around for writes
system.mem_ctrls1.wrPerTurnAround::samples       248241                       # Writes before turning the bus around for reads
system.mem_ctrls1.wrPerTurnAround::mean     17.659323                       # Writes before turning the bus around for reads
system.mem_ctrls1.wrPerTurnAround::gmean    17.639531                       # Writes before turning the bus around for reads
system.mem_ctrls1.wrPerTurnAround::stdev     0.821292                       # Writes before turning the bus around for reads
system.mem_ctrls1.wrPerTurnAround::16           42329     17.05%     17.05% # Writes before turning the bus around for reads
system.mem_ctrls1.wrPerTurnAround::17           11655      4.70%     21.75% # Writes before turning the bus around for reads
system.mem_ctrls1.wrPerTurnAround::18          184044     74.14%     95.89% # Writes before turning the bus around for reads
system.mem_ctrls1.wrPerTurnAround::19            8864      3.57%     99.46% # Writes before turning the bus around for reads
system.mem_ctrls1.wrPerTurnAround::20            1211      0.49%     99.94% # Writes before turning the bus around for reads
system.mem_ctrls1.wrPerTurnAround::21             107      0.04%     99.99% # Writes before turning the bus around for reads
system.mem_ctrls1.wrPerTurnAround::22              22      0.01%    100.00% # Writes before turning the bus around for reads
system.mem_ctrls1.wrPerTurnAround::23               7      0.00%    100.00% # Writes before turning the bus around for reads
system.mem_ctrls1.wrPerTurnAround::24               1      0.00%    100.00% # Writes before turning the bus around for reads
system.mem_ctrls1.wrPerTurnAround::25               1      0.00%    100.00% # Writes before turning the bus around for reads
system.mem_ctrls1.wrPerTurnAround::total       248241                       # Writes before turning the bus around for reads
system.mem_ctrls1.totQLat                226727936502                       # Total ticks spent queuing
system.mem_ctrls1.totMemAccLat           384774799002                       # Total ticks spent from burst creation until serviced by the DRAM
system.mem_ctrls1.totBusLat               42145830000                       # Total ticks spent in databus transfers
system.mem_ctrls1.avgQLat                    26898.03                       # Average queueing delay per DRAM burst
system.mem_ctrls1.avgBusLat                   5000.00                       # Average bus latency per DRAM burst
system.mem_ctrls1.avgMemAccLat               45648.03                       # Average memory access latency per DRAM burst
system.mem_ctrls1.avgRdBW                      144.88                       # Average DRAM read bandwidth in MiByte/s
system.mem_ctrls1.avgWrBW                       75.35                       # Average achieved write bandwidth in MiByte/s
system.mem_ctrls1.avgRdBWSys                   144.88                       # Average system read bandwidth in MiByte/s
system.mem_ctrls1.avgWrBWSys                    75.35                       # Average system write bandwidth in MiByte/s
system.mem_ctrls1.peakBW                     12800.00                       # Theoretical peak bandwidth in MiByte/s
system.mem_ctrls1.busUtil                        1.72                       # Data bus utilization in percentage
system.mem_ctrls1.busUtilRead                    1.13                       # Data bus utilization in percentage for reads
system.mem_ctrls1.busUtilWrite                   0.59                       # Data bus utilization in percentage for writes
system.mem_ctrls1.avgRdQLen                      1.03                       # Average read queue length when enqueuing
system.mem_ctrls1.avgWrQLen                     24.58                       # Average write queue length when enqueuing
system.mem_ctrls1.readRowHits                 2632748                       # Number of row buffer hits during reads
system.mem_ctrls1.writeRowHits                 792297                       # Number of row buffer hits during writes
system.mem_ctrls1.readRowHitRate                31.23                       # Row buffer hit rate for reads
system.mem_ctrls1.writeRowHitRate               18.07                       # Row buffer hit rate for writes
system.mem_ctrls1.avgGap                    290606.96                       # Average gap between requests
system.mem_ctrls1.pageHitRate                   26.73                       # Row buffer hit rate, read and write combined
system.mem_ctrls1_0.actEnergy             33504778440                       # Energy for activate commands per rank (pJ)
system.mem_ctrls1_0.preEnergy             17808193095                       # Energy for precharge commands per rank (pJ)
system.mem_ctrls1_0.readEnergy            30090794580                       # Energy for read commands per rank (pJ)
system.mem_ctrls1_0.writeEnergy           11445591240                       # Energy for write commands per rank (pJ)
system.mem_ctrls1_0.refreshEnergy        293113211040.000061                       # Energy for refresh commands per rank (pJ)
system.mem_ctrls1_0.actBackEnergy        233148645840                       # Energy for active background per rank (pJ)
system.mem_ctrls1_0.preBackEnergy          7705093920                       # Energy for precharge background per rank (pJ)
system.mem_ctrls1_0.actPowerDownEnergy   1241563084500                       # Energy for active power-down per rank (pJ)
system.mem_ctrls1_0.prePowerDownEnergy   150272697120                       # Energy for precharge power-down per rank (pJ)
system.mem_ctrls1_0.selfRefreshEnergy     23917784985                       # Energy for self refresh per rank (pJ)
system.mem_ctrls1_0.totalEnergy          2042604002160                       # Total energy per rank (pJ)
system.mem_ctrls1_0.averagePower           548.565125                       # Core power per rank (mW)
system.mem_ctrls1_0.totalIdleTime        3192118948179                       # Total Idle time Per DRAM Rank
system.mem_ctrls1_0.memoryStateTime::IDLE   5243902472                       # Time in different power states
system.mem_ctrls1_0.memoryStateTime::REF 124049790000                       # Time in different power states
system.mem_ctrls1_0.memoryStateTime::SREF  78046232755                       # Time in different power states
system.mem_ctrls1_0.memoryStateTime::PRE_PDN 391340355576                       # Time in different power states
system.mem_ctrls1_0.memoryStateTime::ACT 402126903749                       # Time in different power states
system.mem_ctrls1_0.memoryStateTime::ACT_PDN 2722732455874                       # Time in different power states
system.mem_ctrls1_1.actEnergy             33524749020                       # Energy for activate commands per rank (pJ)
system.mem_ctrls1_1.preEnergy             17818807710                       # Energy for precharge commands per rank (pJ)
system.mem_ctrls1_1.readEnergy            30093450660                       # Energy for read commands per rank (pJ)
system.mem_ctrls1_1.writeEnergy           11437677720                       # Energy for write commands per rank (pJ)
system.mem_ctrls1_1.refreshEnergy        292836623040.000061                       # Energy for refresh commands per rank (pJ)
system.mem_ctrls1_1.actBackEnergy        231921224940                       # Energy for active background per rank (pJ)
system.mem_ctrls1_1.preBackEnergy          7669605120                       # Energy for precharge background per rank (pJ)
system.mem_ctrls1_1.actPowerDownEnergy   1243174541190                       # Energy for active power-down per rank (pJ)
system.mem_ctrls1_1.prePowerDownEnergy   149962725120                       # Energy for precharge power-down per rank (pJ)
system.mem_ctrls1_1.selfRefreshEnergy     23667650055                       # Energy for self refresh per rank (pJ)
system.mem_ctrls1_1.totalEnergy          2042137417935                       # Total energy per rank (pJ)
system.mem_ctrls1_1.averagePower           548.439819                       # Core power per rank (mW)
system.mem_ctrls1_1.totalIdleTime        3194896577144                       # Total Idle time Per DRAM Rank
system.mem_ctrls1_1.memoryStateTime::IDLE   5107040637                       # Time in different power states
system.mem_ctrls1_1.memoryStateTime::REF 123929664000                       # Time in different power states
system.mem_ctrls1_1.memoryStateTime::SREF  78112070368                       # Time in different power states
system.mem_ctrls1_1.memoryStateTime::PRE_PDN 390521600476                       # Time in different power states
system.mem_ctrls1_1.memoryStateTime::ACT 399606358645                       # Time in different power states
system.mem_ctrls1_1.memoryStateTime::ACT_PDN 2726262906300                       # Time in different power states
system.pwrStateResidencyTicks::UNDEFINED 147200527957500                       # Cumulative time (in ticks) in various power states
system.cpu.branchPred.lookups                       0                       # Number of BP lookups
system.cpu.branchPred.condPredicted                 0                       # Number of conditional branches predicted
system.cpu.branchPred.condIncorrect                 0                       # Number of conditional branches incorrect
system.cpu.branchPred.BTBLookups                    0                       # Number of BTB lookups
system.cpu.branchPred.BTBHits                       0                       # Number of BTB hits
system.cpu.branchPred.BTBCorrect                    0                       # Number of correct BTB predictions (this stat may not work properly.
system.cpu.branchPred.BTBHitPct                   nan                       # BTB Hit Percentage
system.cpu.branchPred.usedRAS                       0                       # Number of times the RAS was used to get a target.
system.cpu.branchPred.RASInCorrect                  0                       # Number of incorrect RAS predictions.
system.cpu.branchPred.indirectLookups               0                       # Number of indirect predictor lookups.
system.cpu.branchPred.indirectHits                  0                       # Number of indirect target hits.
system.cpu.branchPred.indirectMisses                0                       # Number of indirect misses.
system.cpu.branchPredindirectMispredicted            0                       # Number of mispredicted indirect branches.
system.cpu_voltage_domain.voltage                   1                       # Voltage in Volts
system.cpu_clk_domain.clock                       333                       # Clock period in ticks
system.cpu.dtb.fetch_hits                           0                       # ITB hits
system.cpu.dtb.fetch_misses                         0                       # ITB misses
system.cpu.dtb.fetch_acv                            0                       # ITB acv
system.cpu.dtb.fetch_accesses                       0                       # ITB accesses
system.cpu.dtb.read_hits                           13                       # DTB read hits
system.cpu.dtb.read_misses                          0                       # DTB read misses
system.cpu.dtb.read_acv                             0                       # DTB read access violations
system.cpu.dtb.read_accesses                       13                       # DTB read accesses
system.cpu.dtb.write_hits                           0                       # DTB write hits
system.cpu.dtb.write_misses                         0                       # DTB write misses
system.cpu.dtb.write_acv                            0                       # DTB write access violations
system.cpu.dtb.write_accesses                       0                       # DTB write accesses
system.cpu.dtb.data_hits                           13                       # DTB hits
system.cpu.dtb.data_misses                          0                       # DTB misses
system.cpu.dtb.data_acv                             0                       # DTB access violations
system.cpu.dtb.data_accesses                       13                       # DTB accesses
system.cpu.itb.fetch_hits                           4                       # ITB hits
system.cpu.itb.fetch_misses                         0                       # ITB misses
system.cpu.itb.fetch_acv                            0                       # ITB acv
system.cpu.itb.fetch_accesses                       4                       # ITB accesses
system.cpu.itb.read_hits                            0                       # DTB read hits
system.cpu.itb.read_misses                          0                       # DTB read misses
system.cpu.itb.read_acv                             0                       # DTB read access violations
system.cpu.itb.read_accesses                        0                       # DTB read accesses
system.cpu.itb.write_hits                           0                       # DTB write hits
system.cpu.itb.write_misses                         0                       # DTB write misses
system.cpu.itb.write_acv                            0                       # DTB write access violations
system.cpu.itb.write_accesses                       0                       # DTB write accesses
system.cpu.itb.data_hits                            0                       # DTB hits
system.cpu.itb.data_misses                          0                       # DTB misses
system.cpu.itb.data_acv                             0                       # DTB access violations
system.cpu.itb.data_accesses                        0                       # DTB accesses
system.cpu.workload.num_syscalls                    0                       # Number of system calls
system.cpu.pwrStateResidencyTicks::ON    3723539640426                       # Cumulative time (in ticks) in various power states
system.cpu.numCycles                              985                       # number of cpu cycles simulated
system.cpu.numWorkItemsStarted                      0                       # number of work items this cpu started
system.cpu.numWorkItemsCompleted                    0                       # number of work items this cpu completed
system.cpu.fetch.icacheStallCycles                 51                       # Number of cycles fetch is stalled on an Icache miss
system.cpu.fetch.Insts                             23                       # Number of instructions fetch has processed
system.cpu.fetch.Cycles                             3                       # Number of cycles fetch has run and was not squashing or blocked
system.cpu.fetch.SquashCycles                       3                       # Number of cycles fetch has spent squashing
system.cpu.fetch.PendingDrainCycles                 7                       # Number of cycles fetch has spent waiting on pipes to drain
system.cpu.fetch.CacheLines                         4                       # Number of cache lines fetched
system.cpu.fetch.IcacheSquashes                     2                       # Number of outstanding Icache misses that were squashed
system.cpu.fetch.rateDist::samples                 62                       # Number of instructions fetched each cycle (Total)
system.cpu.fetch.rateDist::mean              0.370968                       # Number of instructions fetched each cycle (Total)
system.cpu.fetch.rateDist::stdev             1.661856                       # Number of instructions fetched each cycle (Total)
system.cpu.fetch.rateDist::underflows               0      0.00%      0.00% # Number of instructions fetched each cycle (Total)
system.cpu.fetch.rateDist::0                       59     95.16%     95.16% # Number of instructions fetched each cycle (Total)
system.cpu.fetch.rateDist::1                        0      0.00%     95.16% # Number of instructions fetched each cycle (Total)
[...]
system.switch_cpus_1.iq.fu_busy_rate         0.055221                       # FU busy rate (busy events/executed inst)
system.switch_cpus_1.iq.int_inst_queue_reads    819481449                       # Number of integer instruction queue reads
system.switch_cpus_1.iq.int_inst_queue_writes     79842606                       # Number of integer instruction queue writes
system.switch_cpus_1.iq.int_inst_queue_wakeup_accesses     72917834                       # Number of integer instruction queue wakeup accesses
system.switch_cpus_1.iq.fp_inst_queue_reads    313134495                       # Number of floating instruction queue reads
system.switch_cpus_1.iq.fp_inst_queue_writes    167482034                       # Number of floating instruction queue writes
system.switch_cpus_1.iq.fp_inst_queue_wakeup_accesses    142530734                       # Number of floating instruction queue wakeup accesses
system.switch_cpus_1.iq.int_alu_accesses     81309713                       # Number of integer alu accesses
system.switch_cpus_1.iq.fp_alu_accesses     160080295                       # Number of floating point alu accesses
system.switch_cpus_1.iew.lsq.thread0.forwLoads       563797                       # Number of loads that had data forwarded from stores
system.switch_cpus_1.iew.lsq.thread0.invAddrLoads            0                       # Number of loads ignored due to an invalid address
system.switch_cpus_1.iew.lsq.thread0.squashedLoads      9699298                       # Number of loads squashed
system.switch_cpus_1.iew.lsq.thread0.ignoredResponses           34                       # Number of memory responses ignored because the instruction is squashed
system.switch_cpus_1.iew.lsq.thread0.memOrderViolation          543                       # Number of memory ordering violations
system.switch_cpus_1.iew.lsq.thread0.squashedStores      1086776                       # Number of stores squashed
system.switch_cpus_1.iew.lsq.thread0.invAddrSwpfs            0                       # Number of software prefetches ignored due to an invalid address
system.switch_cpus_1.iew.lsq.thread0.blockedLoads            0                       # Number of blocked loads due to partial load-store forwarding
system.switch_cpus_1.iew.lsq.thread0.rescheduledLoads            0                       # Number of loads that were rescheduled
system.switch_cpus_1.iew.lsq.thread0.cacheBlocked     11913570                       # Number of times an access to memory failed due to the cache being blocked
system.switch_cpus_1.iew.iewIdleCycles              0                       # Number of cycles IEW is idle
system.switch_cpus_1.iew.iewSquashCycles       306924                       # Number of cycles IEW is squashing
system.switch_cpus_1.iew.iewBlockCycles      17358280                       # Number of cycles IEW is blocking
system.switch_cpus_1.iew.iewUnblockCycles    205723941                       # Number of cycles IEW is unblocking
system.switch_cpus_1.iew.iewDispatchedInsts    223848130                       # Number of instructions dispatched to IQ
system.switch_cpus_1.iew.iewDispSquashedInsts         1796                       # Number of squashed instructions skipped by dispatch
system.switch_cpus_1.iew.iewDispLoadInsts     93114906                       # Number of dispatched load instructions
system.switch_cpus_1.iew.iewDispStoreInsts     11679223                       # Number of dispatched store instructions
system.switch_cpus_1.iew.iewDispNonSpecInsts            0                       # Number of dispatched non-speculative instructions
system.switch_cpus_1.iew.iewIQFullEvents        21973                       # Number of times the IQ has become full, causing a stall
system.switch_cpus_1.iew.iewLSQFullEvents    205673998                       # Number of times the LSQ has become full, causing a stall
system.switch_cpus_1.iew.memOrderViolationEvents          543                       # Number of memory order violations
system.switch_cpus_1.iew.predictedTakenIncorrect         3860                       # Number of branches that were predicted taken incorrectly
system.switch_cpus_1.iew.predictedNotTakenIncorrect          458                       # Number of branches that were predicted not taken incorrectly
system.switch_cpus_1.iew.branchMispredicts         4318                       # Number of branch mispredicts detected at execute
system.switch_cpus_1.iew.iewExecutedInsts    228689709                       # Number of executed instructions
system.switch_cpus_1.iew.iewExecLoadInsts    104284947                       # Number of load instructions executed
system.switch_cpus_1.iew.iewExecSquashedInsts        68106                       # Number of squashed instructions skipped in execute
system.switch_cpus_1.iew.exec_swp                   0                       # number of swp insts executed
system.switch_cpus_1.iew.exec_nop              186048                       # number of nop insts executed
system.switch_cpus_1.iew.exec_refs          115005584                       # number of memory reference insts executed
system.switch_cpus_1.iew.exec_branches        1994192                       # Number of branches executed
system.switch_cpus_1.iew.exec_stores         10720637                       # Number of stores executed
system.switch_cpus_1.iew.exec_rate           0.345349                       # Inst execution rate
system.switch_cpus_1.iew.wb_sent            216537124                       # cumulative count of insts sent to commit
system.switch_cpus_1.iew.wb_count           215448568                       # cumulative count of insts written-back
system.switch_cpus_1.iew.wb_producers       142926600                       # num instructions producing a value
system.switch_cpus_1.iew.wb_consumers       149804641                       # num instructions consuming a value
system.switch_cpus_1.iew.wb_rate             0.325353                       # insts written-back per cycle
system.switch_cpus_1.iew.wb_fanout           0.954087                       # average fanout of values written-back
system.switch_cpus_1.commit.commitSquashedInsts     22579667                       # The number of squashed insts skipped by commit
system.switch_cpus_1.commit.branchMispredicts         4268                       # The number of times a branch was mispredicted
system.switch_cpus_1.commit.committed_per_cycle::samples    659164607                       # Number of insts commited each cycle
system.switch_cpus_1.commit.committed_per_cycle::mean     0.303696                       # Number of insts commited each cycle
system.switch_cpus_1.commit.committed_per_cycle::stdev     1.390148                       # Number of insts commited each cycle
system.switch_cpus_1.commit.committed_per_cycle::underflows            0      0.00%      0.00% # Number of insts commited each cycle
system.switch_cpus_1.commit.committed_per_cycle::0    615979403     93.45%     93.45% # Number of insts commited each cycle
system.switch_cpus_1.commit.committed_per_cycle::1     12552931      1.90%     95.35% # Number of insts commited each cycle
system.switch_cpus_1.commit.committed_per_cycle::2      4329475      0.66%     96.01% # Number of insts commited each cycle
system.switch_cpus_1.commit.committed_per_cycle::3      2633048      0.40%     96.41% # Number of insts commited each cycle
system.switch_cpus_1.commit.committed_per_cycle::4      2279902      0.35%     96.76% # Number of insts commited each cycle
system.switch_cpus_1.commit.committed_per_cycle::5      1623628      0.25%     97.00% # Number of insts commited each cycle
system.switch_cpus_1.commit.committed_per_cycle::6      1679114      0.25%     97.26% # Number of insts commited each cycle
system.switch_cpus_1.commit.committed_per_cycle::7       934790      0.14%     97.40% # Number of insts commited each cycle
system.switch_cpus_1.commit.committed_per_cycle::8     17152316      2.60%    100.00% # Number of insts commited each cycle
system.switch_cpus_1.commit.committed_per_cycle::overflows            0      0.00%    100.00% # Number of insts commited each cycle
system.switch_cpus_1.commit.committed_per_cycle::min_value            0                       # Number of insts commited each cycle
system.switch_cpus_1.commit.committed_per_cycle::max_value            8                       # Number of insts commited each cycle
system.switch_cpus_1.commit.committed_per_cycle::total    659164607                       # Number of insts commited each cycle
system.switch_cpus_1.commit.committedInsts    200185515                       # Number of instructions committed
system.switch_cpus_1.commit.committedOps    200185515                       # Number of ops (including micro ops) committed
system.switch_cpus_1.commit.swp_count               0                       # Number of s/w prefetches committed
system.switch_cpus_1.commit.refs             94008030                       # Number of memory references committed
system.switch_cpus_1.commit.loads            83415586                       # Number of loads committed
system.switch_cpus_1.commit.membars                 0                       # Number of memory barriers committed
system.switch_cpus_1.commit.branches          1780705                       # Number of branches committed
system.switch_cpus_1.commit.fp_insts        133556284                       # Number of committed floating point instructions.
system.switch_cpus_1.commit.int_insts       133992906                       # Number of committed integer instructions.
system.switch_cpus_1.commit.function_calls            0                       # Number of function calls committed.
system.switch_cpus_1.commit.op_class_0::No_OpClass       185513      0.09%      0.09% # Class of committed instruction
system.switch_cpus_1.commit.op_class_0::IntAlu     39964775     19.96%     20.06% # Class of committed instruction
system.switch_cpus_1.commit.op_class_0::IntMult        96303      0.05%     20.10% # Class of committed instruction
system.switch_cpus_1.commit.op_class_0::IntDiv            0      0.00%     20.10% # Class of committed instruction
system.switch_cpus_1.commit.op_class_0::FloatAdd     26372358     13.17%     33.28% # Class of committed instruction
system.switch_cpus_1.commit.op_class_0::FloatCmp            0      0.00%     33.28% # Class of committed instruction
system.switch_cpus_1.commit.op_class_0::FloatCvt            0      0.00%     33.28% # Class of committed instruction
system.switch_cpus_1.commit.op_class_0::FloatMult     39558536     19.76%     53.04% # Class of committed instruction
system.switch_cpus_1.commit.op_class_0::FloatMultAcc            0      0.00%     53.04% # Class of committed instruction
system.switch_cpus_1.commit.op_class_0::FloatDiv            0      0.00%     53.04% # Class of committed instruction
system.switch_cpus_1.commit.op_class_0::FloatMisc            0      0.00%     53.04% # Class of committed instruction
system.switch_cpus_1.commit.op_class_0::FloatSqrt            0      0.00%     53.04% # Class of committed instruction
system.switch_cpus_1.commit.op_class_0::SimdAdd            0      0.00%     53.04% # Class of committed instruction
system.switch_cpus_1.commit.op_class_0::SimdAddAcc            0      0.00%     53.04% # Class of committed instruction
system.switch_cpus_1.commit.op_class_0::SimdAlu            0      0.00%     53.04% # Class of committed instruction
system.switch_cpus_1.commit.op_class_0::SimdCmp            0      0.00%     53.04% # Class of committed instruction
system.switch_cpus_1.commit.op_class_0::SimdCvt            0      0.00%     53.04% # Class of committed instruction
system.switch_cpus_1.commit.op_class_0::SimdMisc            0      0.00%     53.04% # Class of committed instruction
system.switch_cpus_1.commit.op_class_0::SimdMult            0      0.00%     53.04% # Class of committed instruction
system.switch_cpus_1.commit.op_class_0::SimdMultAcc            0      0.00%     53.04% # Class of committed instruction
system.switch_cpus_1.commit.op_class_0::SimdShift            0      0.00%     53.04% # Class of committed instruction
system.switch_cpus_1.commit.op_class_0::SimdShiftAcc            0      0.00%     53.04% # Class of committed instruction
system.switch_cpus_1.commit.op_class_0::SimdSqrt            0      0.00%     53.04% # Class of committed instruction
system.switch_cpus_1.commit.op_class_0::SimdFloatAdd            0      0.00%     53.04% # Class of committed instruction
system.switch_cpus_1.commit.op_class_0::SimdFloatAlu            0      0.00%     53.04% # Class of committed instruction
system.switch_cpus_1.commit.op_class_0::SimdFloatCmp            0      0.00%     53.04% # Class of committed instruction
system.switch_cpus_1.commit.op_class_0::SimdFloatCvt            0      0.00%     53.04% # Class of committed instruction
system.switch_cpus_1.commit.op_class_0::SimdFloatDiv            0      0.00%     53.04% # Class of committed instruction
system.switch_cpus_1.commit.op_class_0::SimdFloatMisc            0      0.00%     53.04% # Class of committed instruction
system.switch_cpus_1.commit.op_class_0::SimdFloatMult            0      0.00%     53.04% # Class of committed instruction
system.switch_cpus_1.commit.op_class_0::SimdFloatMultAcc            0      0.00%     53.04% # Class of committed instruction
system.switch_cpus_1.commit.op_class_0::SimdFloatSqrt            0      0.00%     53.04% # Class of committed instruction
system.switch_cpus_1.commit.op_class_0::MemRead     24580982     12.28%     65.32% # Class of committed instruction
system.switch_cpus_1.commit.op_class_0::MemWrite      1801658      0.90%     66.22% # Class of committed instruction
system.switch_cpus_1.commit.op_class_0::FloatMemRead     58834604     29.39%     95.61% # Class of committed instruction
system.switch_cpus_1.commit.op_class_0::FloatMemWrite      8790786      4.39%    100.00% # Class of committed instruction
system.switch_cpus_1.commit.op_class_0::IprAccess            0      0.00%    100.00% # Class of committed instruction
system.switch_cpus_1.commit.op_class_0::InstPrefetch            0      0.00%    100.00% # Class of committed instruction
system.switch_cpus_1.commit.op_class_0::total    200185515                       # Class of committed instruction
system.switch_cpus_1.commit.bw_lim_events     17152316                       # number cycles where commit BW limit reached
system.switch_cpus_1.rob.rob_reads          860848600                       # The number of ROB reads
system.switch_cpus_1.rob.rob_writes         448489135                       # The number of ROB writes
system.switch_cpus_1.timesIdled                   375                       # Number of times that the entire CPU went into an idle state and unscheduled itself
system.switch_cpus_1.idleCycles                 76168                       # Total number of cycles that the CPU has spent unscheduled due to idling
system.switch_cpus_1.committedInsts         200000002                       # Number of Instructions Simulated
system.switch_cpus_1.committedOps           200000002                       # Number of Ops (including micro ops) Simulated
system.switch_cpus_1.cpi                     3.310997                       # CPI: Cycles Per Instruction
system.switch_cpus_1.cpi_total               3.310997                       # CPI: Total CPI of All Threads
system.switch_cpus_1.ipc                     0.302024                       # IPC: Instructions Per Cycle
system.switch_cpus_1.ipc_total               0.302024                       # IPC: Total IPC of All Threads
system.switch_cpus_1.int_regfile_reads      181579921                       # number of integer regfile reads
system.switch_cpus_1.int_regfile_writes      69122432                       # number of integer regfile writes
system.switch_cpus_1.fp_regfile_reads       147035687                       # number of floating regfile reads
system.switch_cpus_1.fp_regfile_writes      133639668                       # number of floating regfile writes
system.tol3bus.snoop_filter.tot_requests     39183942                       # Total number of requests made to the snoop filter.
system.tol3bus.snoop_filter.hit_single_requests     19589641                       # Number of requests hitting in the snoop filter with a single holder of the requested data.
system.tol3bus.snoop_filter.hit_multi_requests            0                       # Number of requests hitting in the snoop filter with multiple (>1) holders of the requested data.
system.tol3bus.snoop_filter.tot_snoops         529340                       # Total number of snoops made to the snoop filter.
system.tol3bus.snoop_filter.hit_single_snoops       529340                       # Number of snoops hitting in the snoop filter with a single holder of the requested data.
system.tol3bus.snoop_filter.hit_multi_snoops            0                       # Number of snoops hitting in the snoop filter with multiple (>1) holders of the requested data.
system.tol3bus.pwrStateResidencyTicks::UNDEFINED 147200527957500                       # Cumulative time (in ticks) in various power states
system.tol3bus.trans_dist::ReadResp          19456449                       # Transaction distribution
system.tol3bus.trans_dist::WritebackDirty     17802132                       # Transaction distribution
system.tol3bus.trans_dist::CleanEvict        18871874                       # Transaction distribution
system.tol3bus.trans_dist::UpgradeReq               5                       # Transaction distribution
system.tol3bus.trans_dist::UpgradeResp              5                       # Transaction distribution
system.tol3bus.trans_dist::ReadExReq           137852                       # Transaction distribution
system.tol3bus.trans_dist::ReadExResp          137852                       # Transaction distribution
system.tol3bus.trans_dist::ReadSharedReq     19456449                       # Transaction distribution
system.tol3bus.pkt_count_system.cpu.l2.mem_side::system.l3.cpu_side     58778248                       # Packet count per connected master and slave (bytes)
system.tol3bus.pkt_size_system.cpu.l2.mem_side::system.l3.cpu_side   1832254144                       # Cumulative packet size per connected master and slave (bytes)
system.tol3bus.snoops                        17084370                       # Total snoops (count)
system.tol3bus.snoopTraffic                 561117568                       # Total snoop traffic (bytes)
system.tol3bus.snoop_fanout::samples         36678676                       # Request fanout histogram
system.tol3bus.snoop_fanout::mean            0.014432                       # Request fanout histogram
system.tol3bus.snoop_fanout::stdev           0.119262                       # Request fanout histogram
system.tol3bus.snoop_fanout::underflows             0      0.00%      0.00% # Request fanout histogram
system.tol3bus.snoop_fanout::0               36149336     98.56%     98.56% # Request fanout histogram
system.tol3bus.snoop_fanout::1                 529340      1.44%    100.00% # Request fanout histogram
system.tol3bus.snoop_fanout::overflows              0      0.00%    100.00% # Request fanout histogram
system.tol3bus.snoop_fanout::min_value              0                       # Request fanout histogram
system.tol3bus.snoop_fanout::max_value              1                       # Request fanout histogram
system.tol3bus.snoop_fanout::total           36678676                       # Request fanout histogram
system.tol3bus.reqLayer0.occupancy        16056797796                       # Layer occupancy (ticks)
system.tol3bus.reqLayer0.utilization              0.4                       # Layer utilization (%)
system.tol3bus.respLayer0.occupancy       13049806131                       # Layer occupancy (ticks)
system.tol3bus.respLayer0.utilization             0.4                       # Layer utilization (%)

---------- End Simulation Statistics   ----------
