
---------- Begin Simulation Statistics ----------
sim_seconds                                  1.979123                       # Number of seconds simulated
sim_ticks                                1979122818744                       # Number of ticks simulated
final_tick                               35282500743105                       # Number of ticks from beginning of simulation (restored from checkpoints and never reset)
sim_freq                                 1000000000000                       # Frequency of simulated ticks
host_inst_rate                                 236552                       # Simulator instruction rate (inst/s)
host_op_rate                                   236552                       # Simulator op (including micro ops) rate (op/s)
host_tick_rate                              234082569                       # Simulator tick rate (ticks/s)
host_mem_usage                                2568188                       # Number of bytes of host memory used
host_seconds                                  8454.81                       # Real time elapsed on the host
sim_insts                                  2000000008                       # Number of instructions simulated
sim_ops                                    2000000008                       # Number of ops (including micro ops) simulated
system.voltage_domain.voltage                       1                       # Voltage in Volts
system.clk_domain.clock                          1000                       # Clock period in ticks
system.mem_ctrls0.pwrStateResidencyTicks::UNDEFINED 35282500743105                       # Cumulative time (in ticks) in various power states
system.mem_ctrls0.bytes_read::cpu.inst            128                       # Number of bytes read from this memory
system.mem_ctrls0.bytes_read::cpu.data            192                       # Number of bytes read from this memory
system.mem_ctrls0.bytes_read::switch_cpus.inst         8064                       # Number of bytes read from this memory
system.mem_ctrls0.bytes_read::switch_cpus.data     93144576                       # Number of bytes read from this memory
system.mem_ctrls0.bytes_read::switch_cpus_1.inst           64                       # Number of bytes read from this memory
system.mem_ctrls0.bytes_read::switch_cpus_1.data     98038848                       # Number of bytes read from this memory
system.mem_ctrls0.bytes_read::total         191191872                       # Number of bytes read from this memory
system.mem_ctrls0.bytes_inst_read::cpu.inst          128                       # Number of instructions bytes read from this memory
system.mem_ctrls0.bytes_inst_read::switch_cpus.inst         8064                       # Number of instructions bytes read from this memory
system.mem_ctrls0.bytes_inst_read::switch_cpus_1.inst           64                       # Number of instructions bytes read from this memory
system.mem_ctrls0.bytes_inst_read::total         8256                       # Number of instructions bytes read from this memory
system.mem_ctrls0.bytes_written::writebacks     58629056                       # Number of bytes written to this memory
system.mem_ctrls0.bytes_written::total       58629056                       # Number of bytes written to this memory
system.mem_ctrls0.num_reads::cpu.inst               2                       # Number of read requests responded to by this memory
system.mem_ctrls0.num_reads::cpu.data               3                       # Number of read requests responded to by this memory
system.mem_ctrls0.num_reads::switch_cpus.inst          126                       # Number of read requests responded to by this memory
system.mem_ctrls0.num_reads::switch_cpus.data      1455384                       # Number of read requests responded to by this memory
system.mem_ctrls0.num_reads::switch_cpus_1.inst            1                       # Number of read requests responded to by this memory
system.mem_ctrls0.num_reads::switch_cpus_1.data      1531857                       # Number of read requests responded to by this memory
system.mem_ctrls0.num_reads::total            2987373                       # Number of read requests responded to by this memory
system.mem_ctrls0.num_writes::writebacks       916079                       # Number of write requests responded to by this memory
system.mem_ctrls0.num_writes::total            916079                       # Number of write requests responded to by this memory
system.mem_ctrls0.bw_read::cpu.inst                65                       # Total read bandwidth from this memory (bytes/s)
system.mem_ctrls0.bw_read::cpu.data                97                       # Total read bandwidth from this memory (bytes/s)
system.mem_ctrls0.bw_read::switch_cpus.inst         4075                       # Total read bandwidth from this memory (bytes/s)
system.mem_ctrls0.bw_read::switch_cpus.data     47063565                       # Total read bandwidth from this memory (bytes/s)
system.mem_ctrls0.bw_read::switch_cpus_1.inst           32                       # Total read bandwidth from this memory (bytes/s)
system.mem_ctrls0.bw_read::switch_cpus_1.data     49536515                       # Total read bandwidth from this memory (bytes/s)
system.mem_ctrls0.bw_read::total             96604349                       # Total read bandwidth from this memory (bytes/s)
system.mem_ctrls0.bw_inst_read::cpu.inst           65                       # Instruction read bandwidth from this memory (bytes/s)
system.mem_ctrls0.bw_inst_read::switch_cpus.inst         4075                       # Instruction read bandwidth from this memory (bytes/s)
system.mem_ctrls0.bw_inst_read::switch_cpus_1.inst           32                       # Instruction read bandwidth from this memory (bytes/s)
system.mem_ctrls0.bw_inst_read::total            4172                       # Instruction read bandwidth from this memory (bytes/s)
system.mem_ctrls0.bw_write::writebacks       29623758                       # Write bandwidth from this memory (bytes/s)
system.mem_ctrls0.bw_write::total            29623758                       # Write bandwidth from this memory (bytes/s)
system.mem_ctrls0.bw_total::writebacks       29623758                       # Total bandwidth to/from this memory (bytes/s)
system.mem_ctrls0.bw_total::cpu.inst               65                       # Total bandwidth to/from this memory (bytes/s)
system.mem_ctrls0.bw_total::cpu.data               97                       # Total bandwidth to/from this memory (bytes/s)
system.mem_ctrls0.bw_total::switch_cpus.inst         4075                       # Total bandwidth to/from this memory (bytes/s)
system.mem_ctrls0.bw_total::switch_cpus.data     47063565                       # Total bandwidth to/from this memory (bytes/s)
system.mem_ctrls0.bw_total::switch_cpus_1.inst           32                       # Total bandwidth to/from this memory (bytes/s)
system.mem_ctrls0.bw_total::switch_cpus_1.data     49536515                       # Total bandwidth to/from this memory (bytes/s)
system.mem_ctrls0.bw_total::total           126228108                       # Total bandwidth to/from this memory (bytes/s)
system.mem_ctrls0.readReqs                    2987373                       # Number of read requests accepted
system.mem_ctrls0.writeReqs                    916079                       # Number of write requests accepted
system.mem_ctrls0.readBursts                  2987373                       # Number of DRAM read bursts, including those serviced by the write queue
system.mem_ctrls0.writeBursts                  916079                       # Number of DRAM write bursts, including those merged in the write queue
system.mem_ctrls0.bytesReadDRAM             191166848                       # Total number of bytes read from DRAM
system.mem_ctrls0.bytesReadWrQ                  25024                       # Total number of bytes read from write queue
system.mem_ctrls0.bytesWritten               58627712                       # Total number of bytes written to DRAM
system.mem_ctrls0.bytesReadSys              191191872                       # Total read bytes from the system interface side
system.mem_ctrls0.bytesWrittenSys            58629056                       # Total written bytes from the system interface side
system.mem_ctrls0.servicedByWrQ                   391                       # Number of DRAM read bursts serviced by the write queue
system.mem_ctrls0.mergedWrBursts                    1                       # Number of DRAM write bursts merged with an existing one
system.mem_ctrls0.neitherReadNorWriteReqs            0                       # Number of requests that are neither read nor write
system.mem_ctrls0.perBankRdBursts::0           194640                       # Per bank write bursts
system.mem_ctrls0.perBankRdBursts::1           190616                       # Per bank write bursts
system.mem_ctrls0.perBankRdBursts::2           192176                       # Per bank write bursts
system.mem_ctrls0.perBankRdBursts::3           190056                       # Per bank write bursts
system.mem_ctrls0.perBankRdBursts::4           192473                       # Per bank write bursts
system.mem_ctrls0.perBankRdBursts::5           191064                       # Per bank write bursts
system.mem_ctrls0.perBankRdBursts::6           185242                       # Per bank write bursts
system.mem_ctrls0.perBankRdBursts::7           183559                       # Per bank write bursts
system.mem_ctrls0.perBankRdBursts::8           177465                       # Per bank write bursts
system.mem_ctrls0.perBankRdBursts::9           173959                       # Per bank write bursts
system.mem_ctrls0.perBankRdBursts::10          178092                       # Per bank write bursts
system.mem_ctrls0.perBankRdBursts::11          183117                       # Per bank write bursts
system.mem_ctrls0.perBankRdBursts::12          184480                       # Per bank write bursts
system.mem_ctrls0.perBankRdBursts::13          186922                       # Per bank write bursts
system.mem_ctrls0.perBankRdBursts::14          190856                       # Per bank write bursts
system.mem_ctrls0.perBankRdBursts::15          192265                       # Per bank write bursts
system.mem_ctrls0.perBankWrBursts::0            60346                       # Per bank write bursts
system.mem_ctrls0.perBankWrBursts::1            58336                       # Per bank write bursts
system.mem_ctrls0.perBankWrBursts::2            58519                       # Per bank write bursts
system.mem_ctrls0.perBankWrBursts::3            57801                       # Per bank write bursts
system.mem_ctrls0.perBankWrBursts::4            57610                       # Per bank write bursts
system.mem_ctrls0.perBankWrBursts::5            57278                       # Per bank write bursts
system.mem_ctrls0.perBankWrBursts::6            56509                       # Per bank write bursts
system.mem_ctrls0.perBankWrBursts::7            56852                       # Per bank write bursts
system.mem_ctrls0.perBankWrBursts::8            55644                       # Per bank write bursts
system.mem_ctrls0.perBankWrBursts::9            54998                       # Per bank write bursts
system.mem_ctrls0.perBankWrBursts::10           55647                       # Per bank write bursts
system.mem_ctrls0.perBankWrBursts::11           56201                       # Per bank write bursts
system.mem_ctrls0.perBankWrBursts::12           56515                       # Per bank write bursts
system.mem_ctrls0.perBankWrBursts::13           56797                       # Per bank write bursts
system.mem_ctrls0.perBankWrBursts::14           57997                       # Per bank write bursts
system.mem_ctrls0.perBankWrBursts::15           59008                       # Per bank write bursts
system.mem_ctrls0.numRdRetry                        0                       # Number of times read queue was full causing retry
system.mem_ctrls0.numWrRetry                        0                       # Number of times write queue was full causing retry
system.mem_ctrls0.totGap                 1979122566996                       # Total gap between requests
system.mem_ctrls0.readPktSize::0                    0                       # Read request sizes (log2)
system.mem_ctrls0.readPktSize::1                    0                       # Read request sizes (log2)
system.mem_ctrls0.readPktSize::2                    0                       # Read request sizes (log2)
system.mem_ctrls0.readPktSize::3                    0                       # Read request sizes (log2)
system.mem_ctrls0.readPktSize::4                    0                       # Read request sizes (log2)
system.mem_ctrls0.readPktSize::5                    0                       # Read request sizes (log2)
system.mem_ctrls0.readPktSize::6              2987373                       # Read request sizes (log2)
system.mem_ctrls0.writePktSize::0                   0                       # Write request sizes (log2)
system.mem_ctrls0.writePktSize::1                   0                       # Write request sizes (log2)
system.mem_ctrls0.writePktSize::2                   0                       # Write request sizes (log2)
system.mem_ctrls0.writePktSize::3                   0                       # Write request sizes (log2)
system.mem_ctrls0.writePktSize::4                   0                       # Write request sizes (log2)
system.mem_ctrls0.writePktSize::5                   0                       # Write request sizes (log2)
system.mem_ctrls0.writePktSize::6              916079                       # Write request sizes (log2)
system.mem_ctrls0.rdQLenPdf::0                2435430                       # What read queue length does an incoming req see
system.mem_ctrls0.rdQLenPdf::1                 489813                       # What read queue length does an incoming req see
system.mem_ctrls0.rdQLenPdf::2                  58567                       # What read queue length does an incoming req see
system.mem_ctrls0.rdQLenPdf::3                   3172                       # What read queue length does an incoming req see
system.mem_ctrls0.rdQLenPdf::4                      0                       # What read queue length does an incoming req see
system.mem_ctrls0.rdQLenPdf::5                      0                       # What read queue length does an incoming req see
system.mem_ctrls0.rdQLenPdf::6                      0                       # What read queue length does an incoming req see
system.mem_ctrls0.rdQLenPdf::7                      0                       # What read queue length does an incoming req see
system.mem_ctrls0.rdQLenPdf::8                      0                       # What read queue length does an incoming req see
system.mem_ctrls0.rdQLenPdf::9                      0                       # What read queue length does an incoming req see
system.mem_ctrls0.rdQLenPdf::10                     0                       # What read queue length does an incoming req see
system.mem_ctrls0.rdQLenPdf::11                     0                       # What read queue length does an incoming req see
system.mem_ctrls0.rdQLenPdf::12                     0                       # What read queue length does an incoming req see
system.mem_ctrls0.rdQLenPdf::13                     0                       # What read queue length does an incoming req see
system.mem_ctrls0.rdQLenPdf::14                     0                       # What read queue length does an incoming req see
system.mem_ctrls0.rdQLenPdf::15                     0                       # What read queue length does an incoming req see
system.mem_ctrls0.rdQLenPdf::16                     0                       # What read queue length does an incoming req see
system.mem_ctrls0.rdQLenPdf::17                     0                       # What read queue length does an incoming req see
system.mem_ctrls0.rdQLenPdf::18                     0                       # What read queue length does an incoming req see
system.mem_ctrls0.rdQLenPdf::19                     0                       # What read queue length does an incoming req see
system.mem_ctrls0.rdQLenPdf::20                     0                       # What read queue length does an incoming req see
system.mem_ctrls0.rdQLenPdf::21                     0                       # What read queue length does an incoming req see
system.mem_ctrls0.rdQLenPdf::22                     0                       # What read queue length does an incoming req see
system.mem_ctrls0.rdQLenPdf::23                     0                       # What read queue length does an incoming req see
system.mem_ctrls0.rdQLenPdf::24                     0                       # What read queue length does an incoming req see
system.mem_ctrls0.rdQLenPdf::25                     0                       # What read queue length does an incoming req see
system.mem_ctrls0.rdQLenPdf::26                     0                       # What read queue length does an incoming req see
system.mem_ctrls0.rdQLenPdf::27                     0                       # What read queue length does an incoming req see
system.mem_ctrls0.rdQLenPdf::28                     0                       # What read queue length does an incoming req see
system.mem_ctrls0.rdQLenPdf::29                     0                       # What read queue length does an incoming req see
system.mem_ctrls0.rdQLenPdf::30                     0                       # What read queue length does an incoming req see
system.mem_ctrls0.rdQLenPdf::31                     0                       # What read queue length does an incoming req see
system.mem_ctrls0.wrQLenPdf::0                      2                       # What write queue length does an incoming req see
system.mem_ctrls0.wrQLenPdf::1                      2                       # What write queue length does an incoming req see
system.mem_ctrls0.wrQLenPdf::2                      2                       # What write queue length does an incoming req see
system.mem_ctrls0.wrQLenPdf::3                      2                       # What write queue length does an incoming req see
system.mem_ctrls0.wrQLenPdf::4                      2                       # What write queue length does an incoming req see
system.mem_ctrls0.wrQLenPdf::5                      2                       # What write queue length does an incoming req see
system.mem_ctrls0.wrQLenPdf::6                      2                       # What write queue length does an incoming req see
system.mem_ctrls0.wrQLenPdf::7                      2                       # What write queue length does an incoming req see
system.mem_ctrls0.wrQLenPdf::8                      2                       # What write queue length does an incoming req see
system.mem_ctrls0.wrQLenPdf::9                      2                       # What write queue length does an incoming req see
system.mem_ctrls0.wrQLenPdf::10                     2                       # What write queue length does an incoming req see
system.mem_ctrls0.wrQLenPdf::11                     2                       # What write queue length does an incoming req see
system.mem_ctrls0.wrQLenPdf::12                     2                       # What write queue length does an incoming req see
system.mem_ctrls0.wrQLenPdf::13                     2                       # What write queue length does an incoming req see
system.mem_ctrls0.wrQLenPdf::14                     2                       # What write queue length does an incoming req see
system.mem_ctrls0.wrQLenPdf::15                 33936                       # What write queue length does an incoming req see
system.mem_ctrls0.wrQLenPdf::16                 35728                       # What write queue length does an incoming req see
system.mem_ctrls0.wrQLenPdf::17                 50099                       # What write queue length does an incoming req see
system.mem_ctrls0.wrQLenPdf::18                 52747                       # What write queue length does an incoming req see
system.mem_ctrls0.wrQLenPdf::19                 53274                       # What write queue length does an incoming req see
system.mem_ctrls0.wrQLenPdf::20                 53365                       # What write queue length does an incoming req see
system.mem_ctrls0.wrQLenPdf::21                 53550                       # What write queue length does an incoming req see
system.mem_ctrls0.wrQLenPdf::22                 53788                       # What write queue length does an incoming req see
system.mem_ctrls0.wrQLenPdf::23                 53468                       # What write queue length does an incoming req see
system.mem_ctrls0.wrQLenPdf::24                 53113                       # What write queue length does an incoming req see
system.mem_ctrls0.wrQLenPdf::25                 53027                       # What write queue length does an incoming req see
system.mem_ctrls0.wrQLenPdf::26                 52944                       # What write queue length does an incoming req see
system.mem_ctrls0.wrQLenPdf::27                 53068                       # What write queue length does an incoming req see
system.mem_ctrls0.wrQLenPdf::28                 52950                       # What write queue length does an incoming req see
system.mem_ctrls0.wrQLenPdf::29                 52804                       # What write queue length does an incoming req see
system.mem_ctrls0.wrQLenPdf::30                 52825                       # What write queue length does an incoming req see
system.mem_ctrls0.wrQLenPdf::31                 52557                       # What write queue length does an incoming req see
system.mem_ctrls0.wrQLenPdf::32                 52581                       # What write queue length does an incoming req see
system.mem_ctrls0.wrQLenPdf::33                   194                       # What write queue length does an incoming req see
system.mem_ctrls0.wrQLenPdf::34                    26                       # What write queue length does an incoming req see
system.mem_ctrls0.wrQLenPdf::35                     3                       # What write queue length does an incoming req see
system.mem_ctrls0.wrQLenPdf::36                     1                       # What write queue length does an incoming req see
system.mem_ctrls0.wrQLenPdf::37                     0                       # What write queue length does an incoming req see
system.mem_ctrls0.wrQLenPdf::38                     0                       # What write queue length does an incoming req see
system.mem_ctrls0.wrQLenPdf::39                     0                       # What write queue length does an incoming req see
system.mem_ctrls0.wrQLenPdf::40                     0                       # What write queue length does an incoming req see
system.mem_ctrls0.wrQLenPdf::41                     0                       # What write queue length does an incoming req see
system.mem_ctrls0.wrQLenPdf::42                     0                       # What write queue length does an incoming req see
system.mem_ctrls0.wrQLenPdf::43                     0                       # What write queue length does an incoming req see
system.mem_ctrls0.wrQLenPdf::44                     0                       # What write queue length does an incoming req see
system.mem_ctrls0.wrQLenPdf::45                     0                       # What write queue length does an incoming req see
system.mem_ctrls0.wrQLenPdf::46                     0                       # What write queue length does an incoming req see
system.mem_ctrls0.wrQLenPdf::47                     0                       # What write queue length does an incoming req see
system.mem_ctrls0.wrQLenPdf::48                     0                       # What write queue length does an incoming req see
system.mem_ctrls0.wrQLenPdf::49                     0                       # What write queue length does an incoming req see
system.mem_ctrls0.wrQLenPdf::50                     0                       # What write queue length does an incoming req see
system.mem_ctrls0.wrQLenPdf::51                     0                       # What write queue length does an incoming req see
system.mem_ctrls0.wrQLenPdf::52                     0                       # What write queue length does an incoming req see
system.mem_ctrls0.wrQLenPdf::53                     0                       # What write queue length does an incoming req see
system.mem_ctrls0.wrQLenPdf::54                     0                       # What write queue length does an incoming req see
system.mem_ctrls0.wrQLenPdf::55                     0                       # What write queue length does an incoming req see
system.mem_ctrls0.wrQLenPdf::56                     0                       # What write queue length does an incoming req see
system.mem_ctrls0.wrQLenPdf::57                     0                       # What write queue length does an incoming req see
system.mem_ctrls0.wrQLenPdf::58                     0                       # What write queue length does an incoming req see
system.mem_ctrls0.wrQLenPdf::59                     0                       # What write queue length does an incoming req see
system.mem_ctrls0.wrQLenPdf::60                     0                       # What write queue length does an incoming req see
system.mem_ctrls0.wrQLenPdf::61                     0                       # What write queue length does an incoming req see
system.mem_ctrls0.wrQLenPdf::62                     0                       # What write queue length does an incoming req see
system.mem_ctrls0.wrQLenPdf::63                     0                       # What write queue length does an incoming req see
system.mem_ctrls0.bytesPerActivate::samples      3294093                       # Bytes accessed per row activation
system.mem_ctrls0.bytesPerActivate::mean    75.830826                       # Bytes accessed per row activation
system.mem_ctrls0.bytesPerActivate::gmean    70.629307                       # Bytes accessed per row activation
system.mem_ctrls0.bytesPerActivate::stdev    45.007466                       # Bytes accessed per row activation
system.mem_ctrls0.bytesPerActivate::0-127      2940491     89.27%     89.27% # Bytes accessed per row activation
system.mem_ctrls0.bytesPerActivate::128-255       292307      8.87%     98.14% # Bytes accessed per row activation
system.mem_ctrls0.bytesPerActivate::256-383        42364      1.29%     99.43% # Bytes accessed per row activation
system.mem_ctrls0.bytesPerActivate::384-511        12514      0.38%     99.81% # Bytes accessed per row activation
system.mem_ctrls0.bytesPerActivate::512-639         4611      0.14%     99.95% # Bytes accessed per row activation
system.mem_ctrls0.bytesPerActivate::640-767         1269      0.04%     99.98% # Bytes accessed per row activation
system.mem_ctrls0.bytesPerActivate::768-895          335      0.01%     99.99% # Bytes accessed per row activation
system.mem_ctrls0.bytesPerActivate::896-1023          113      0.00%    100.00% # Bytes accessed per row activation
system.mem_ctrls0.bytesPerActivate::1024-1151           89      0.00%    100.00% # Bytes accessed per row activation
system.mem_ctrls0.bytesPerActivate::total      3294093                       # Bytes accessed per row activation
system.mem_ctrls0.rdPerTurnAround::samples        52499                       # Reads before turning the bus around for writes
system.mem_ctrls0.rdPerTurnAround::mean     56.895541                       # Reads before turning the bus around for writes
system.mem_ctrls0.rdPerTurnAround::gmean    49.380655                       # Reads before turning the bus around for writes
system.mem_ctrls0.rdPerTurnAround::stdev    95.662948                       # Reads before turning the bus around for writes
system.mem_ctrls0.rdPerTurnAround::0-1023        52496     99.99%     99.99% # Reads before turning the bus around for writes
system.mem_ctrls0.rdPerTurnAround::1024-2047            1      0.00%    100.00% # Reads before turning the bus around for writes
system.mem_ctrls0.rdPerTurnAround::2048-3071            1      0.00%    100.00% # Reads before turning the bus around for writes
system.mem_ctrls0.rdPerTurnAround::19456-20479            1      0.00%    100.00% # Reads before turning the bus around for writes
system.mem_ctrls0.rdPerTurnAround::total        52499                       # Reads before turning the bus around for writes
system.mem_ctrls0.wrPerTurnAround::samples        52499                       # Writes before turning the bus around for reads
system.mem_ctrls0.wrPerTurnAround::mean     17.449056                       # Writes before turning the bus around for reads
system.mem_ctrls0.wrPerTurnAround::gmean    17.415727                       # Writes before turning the bus around for reads
system.mem_ctrls0.wrPerTurnAround::stdev     1.072130                       # Writes before turning the bus around for reads
system.mem_ctrls0.wrPerTurnAround::16           16728     31.86%     31.86% # Writes before turning the bus around for reads
system.mem_ctrls0.wrPerTurnAround::17            1464      2.79%     34.65% # Writes before turning the bus around for reads
system.mem_ctrls0.wrPerTurnAround::18           29122     55.47%     90.12% # Writes before turning the bus around for reads
system.mem_ctrls0.wrPerTurnAround::19            4492      8.56%     98.68% # Writes before turning the bus around for reads
system.mem_ctrls0.wrPerTurnAround::20             595      1.13%     99.81% # Writes before turning the bus around for reads
system.mem_ctrls0.wrPerTurnAround::21              82      0.16%     99.97% # Writes before turning the bus around for reads
system.mem_ctrls0.wrPerTurnAround::22              13      0.02%     99.99% # Writes before turning the bus around for reads
system.mem_ctrls0.wrPerTurnAround::23               2      0.00%    100.00% # Writes before turning the bus around for reads
system.mem_ctrls0.wrPerTurnAround::24               1      0.00%    100.00% # Writes before turning the bus around for reads
system.mem_ctrls0.wrPerTurnAround::total        52499                       # Writes before turning the bus around for reads
system.mem_ctrls0.totQLat                139652274836                       # Total ticks spent queuing
system.mem_ctrls0.totMemAccLat           195658187336                       # Total ticks spent from burst creation until serviced by the DRAM
system.mem_ctrls0.totBusLat               14934910000                       # Total ticks spent in databus transfers
system.mem_ctrls0.avgQLat                    46753.64                       # Average queueing delay per DRAM burst
system.mem_ctrls0.avgBusLat                   5000.00                       # Average bus latency per DRAM burst
system.mem_ctrls0.avgMemAccLat               65503.64                       # Average memory access latency per DRAM burst
system.mem_ctrls0.avgRdBW                       96.59                       # Average DRAM read bandwidth in MiByte/s
system.mem_ctrls0.avgWrBW                       29.62                       # Average achieved write bandwidth in MiByte/s
system.mem_ctrls0.avgRdBWSys                    96.60                       # Average system read bandwidth in MiByte/s
system.mem_ctrls0.avgWrBWSys                    29.62                       # Average system write bandwidth in MiByte/s
system.mem_ctrls0.peakBW                     12800.00                       # Theoretical peak bandwidth in MiByte/s
system.mem_ctrls0.busUtil                        0.99                       # Data bus utilization in percentage
system.mem_ctrls0.busUtilRead                    0.75                       # Data bus utilization in percentage for reads
system.mem_ctrls0.busUtilWrite                   0.23                       # Data bus utilization in percentage for writes
system.mem_ctrls0.avgRdQLen                      1.07                       # Average read queue length when enqueuing
system.mem_ctrls0.avgWrQLen                     24.39                       # Average write queue length when enqueuing
system.mem_ctrls0.readRowHits                  157476                       # Number of row buffer hits during reads
system.mem_ctrls0.writeRowHits                 451460                       # Number of row buffer hits during writes
system.mem_ctrls0.readRowHitRate                 5.27                       # Row buffer hit rate for reads
system.mem_ctrls0.writeRowHitRate               49.28                       # Row buffer hit rate for writes
system.mem_ctrls0.avgGap                    507018.55                       # Average gap between requests
system.mem_ctrls0.pageHitRate                   15.60                       # Row buffer hit rate, read and write combined
system.mem_ctrls0_0.actEnergy             11936359260                       # Energy for activate commands per rank (pJ)
system.mem_ctrls0_0.preEnergy              6344314020                       # Energy for precharge commands per rank (pJ)
system.mem_ctrls0_0.readEnergy            10851557640                       # Energy for read commands per rank (pJ)
system.mem_ctrls0_0.writeEnergy            2418170220                       # Energy for write commands per rank (pJ)
system.mem_ctrls0_0.refreshEnergy        155750390640.000031                       # Energy for refresh commands per rank (pJ)
system.mem_ctrls0_0.actBackEnergy         82776362160                       # Energy for active background per rank (pJ)
system.mem_ctrls0_0.preBackEnergy          7113982560                       # Energy for precharge background per rank (pJ)
system.mem_ctrls0_0.actPowerDownEnergy   485760214140                       # Energy for active power-down per rank (pJ)
system.mem_ctrls0_0.prePowerDownEnergy   187012344480                       # Energy for precharge power-down per rank (pJ)
system.mem_ctrls0_0.selfRefreshEnergy     71259366390                       # Energy for self refresh per rank (pJ)
system.mem_ctrls0_0.totalEnergy          1021294370490                       # Total energy per rank (pJ)
system.mem_ctrls0_0.averagePower           516.033835                       # Core power per rank (mW)
system.mem_ctrls0_0.totalIdleTime        1778922639787                       # Total Idle time Per DRAM Rank
system.mem_ctrls0_0.memoryStateTime::IDLE   9243877319                       # Time in different power states
system.mem_ctrls0_0.memoryStateTime::REF  66073506000                       # Time in different power states
system.mem_ctrls0_0.memoryStateTime::SREF 226636230186                       # Time in different power states
system.mem_ctrls0_0.memoryStateTime::PRE_PDN 487017752378                       # Time in different power states
system.mem_ctrls0_0.memoryStateTime::ACT 124881747559                       # Time in different power states
system.mem_ctrls0_0.memoryStateTime::ACT_PDN 1065269705302                       # Time in different power states
system.mem_ctrls0_1.actEnergy             11583543300                       # Energy for activate commands per rank (pJ)
system.mem_ctrls0_1.preEnergy              6156768915                       # Energy for precharge commands per rank (pJ)
system.mem_ctrls0_1.readEnergy            10475493840                       # Energy for read commands per rank (pJ)
system.mem_ctrls0_1.writeEnergy            2363652540                       # Energy for write commands per rank (pJ)
system.mem_ctrls0_1.refreshEnergy        157746741360.000031                       # Energy for refresh commands per rank (pJ)
system.mem_ctrls0_1.actBackEnergy         82874042490                       # Energy for active background per rank (pJ)
system.mem_ctrls0_1.preBackEnergy          6944929920                       # Energy for precharge background per rank (pJ)
system.mem_ctrls0_1.actPowerDownEnergy   493214181660                       # Energy for active power-down per rank (pJ)
system.mem_ctrls0_1.prePowerDownEnergy   193466720160                       # Energy for precharge power-down per rank (pJ)
system.mem_ctrls0_1.selfRefreshEnergy     62777716695                       # Energy for self refresh per rank (pJ)
system.mem_ctrls0_1.totalEnergy          1027677732240                       # Total energy per rank (pJ)
system.mem_ctrls0_1.averagePower           519.259195                       # Core power per rank (mW)
system.mem_ctrls0_1.totalIdleTime        1779143755263                       # Total Idle time Per DRAM Rank
system.mem_ctrls0_1.memoryStateTime::IDLE   9012908906                       # Time in different power states
system.mem_ctrls0_1.memoryStateTime::REF  66911830000                       # Time in different power states
system.mem_ctrls0_1.memoryStateTime::SREF 193701563632                       # Time in different power states
system.mem_ctrls0_1.memoryStateTime::PRE_PDN 503812424897                       # Time in different power states
system.mem_ctrls0_1.memoryStateTime::ACT 124054140062                       # Time in different power states
system.mem_ctrls0_1.memoryStateTime::ACT_PDN 1081629951247                       # Time in different power states
system.mem_ctrls1.pwrStateResidencyTicks::UNDEFINED 35282500743105                       # Cumulative time (in ticks) in various power states
system.mem_ctrls1.bytes_read::cpu.inst             64                       # Number of bytes read from this memory
system.mem_ctrls1.bytes_read::cpu.data            192                       # Number of bytes read from this memory
system.mem_ctrls1.bytes_read::switch_cpus.inst         8128                       # Number of bytes read from this memory
system.mem_ctrls1.bytes_read::switch_cpus.data     93123968                       # Number of bytes read from this memory
system.mem_ctrls1.bytes_read::switch_cpus_1.data     98014080                       # Number of bytes read from this memory
system.mem_ctrls1.bytes_read::total         191146432                       # Number of bytes read from this memory
system.mem_ctrls1.bytes_inst_read::cpu.inst           64                       # Number of instructions bytes read from this memory
system.mem_ctrls1.bytes_inst_read::switch_cpus.inst         8128                       # Number of instructions bytes read from this memory
system.mem_ctrls1.bytes_inst_read::total         8192                       # Number of instructions bytes read from this memory
system.mem_ctrls1.bytes_written::writebacks     58620224                       # Number of bytes written to this memory
system.mem_ctrls1.bytes_written::total       58620224                       # Number of bytes written to this memory
system.mem_ctrls1.num_reads::cpu.inst               1                       # Number of read requests responded to by this memory
system.mem_ctrls1.num_reads::cpu.data               3                       # Number of read requests responded to by this memory
system.mem_ctrls1.num_reads::switch_cpus.inst          127                       # Number of read requests responded to by this memory
system.mem_ctrls1.num_reads::switch_cpus.data      1455062                       # Number of read requests responded to by this memory
system.mem_ctrls1.num_reads::switch_cpus_1.data      1531470                       # Number of read requests responded to by this memory
system.mem_ctrls1.num_reads::total            2986663                       # Number of read requests responded to by this memory
system.mem_ctrls1.num_writes::writebacks       915941                       # Number of write requests responded to by this memory
system.mem_ctrls1.num_writes::total            915941                       # Number of write requests responded to by this memory
system.mem_ctrls1.bw_read::cpu.inst                32                       # Total read bandwidth from this memory (bytes/s)
system.mem_ctrls1.bw_read::cpu.data                97                       # Total read bandwidth from this memory (bytes/s)
system.mem_ctrls1.bw_read::switch_cpus.inst         4107                       # Total read bandwidth from this memory (bytes/s)
system.mem_ctrls1.bw_read::switch_cpus.data     47053153                       # Total read bandwidth from this memory (bytes/s)
system.mem_ctrls1.bw_read::switch_cpus_1.data     49524001                       # Total read bandwidth from this memory (bytes/s)
system.mem_ctrls1.bw_read::total             96581390                       # Total read bandwidth from this memory (bytes/s)
system.mem_ctrls1.bw_inst_read::cpu.inst           32                       # Instruction read bandwidth from this memory (bytes/s)
system.mem_ctrls1.bw_inst_read::switch_cpus.inst         4107                       # Instruction read bandwidth from this memory (bytes/s)
system.mem_ctrls1.bw_inst_read::total            4139                       # Instruction read bandwidth from this memory (bytes/s)
system.mem_ctrls1.bw_write::writebacks       29619296                       # Write bandwidth from this memory (bytes/s)
system.mem_ctrls1.bw_write::total            29619296                       # Write bandwidth from this memory (bytes/s)
system.mem_ctrls1.bw_total::writebacks       29619296                       # Total bandwidth to/from this memory (bytes/s)
system.mem_ctrls1.bw_total::cpu.inst               32                       # Total bandwidth to/from this memory (bytes/s)
system.mem_ctrls1.bw_total::cpu.data               97                       # Total bandwidth to/from this memory (bytes/s)
system.mem_ctrls1.bw_total::switch_cpus.inst         4107                       # Total bandwidth to/from this memory (bytes/s)
system.mem_ctrls1.bw_total::switch_cpus.data     47053153                       # Total bandwidth to/from this memory (bytes/s)
system.mem_ctrls1.bw_total::switch_cpus_1.data     49524001                       # Total bandwidth to/from this memory (bytes/s)
system.mem_ctrls1.bw_total::total           126200685                       # Total bandwidth to/from this memory (bytes/s)
system.mem_ctrls1.readReqs                    2986663                       # Number of read requests accepted
system.mem_ctrls1.writeReqs                    915941                       # Number of write requests accepted
system.mem_ctrls1.readBursts                  2986663                       # Number of DRAM read bursts, including those serviced by the write queue
system.mem_ctrls1.writeBursts                  915941                       # Number of DRAM write bursts, including those merged in the write queue
system.mem_ctrls1.bytesReadDRAM             191115520                       # Total number of bytes read from DRAM
system.mem_ctrls1.bytesReadWrQ                  30912                       # Total number of bytes read from write queue
system.mem_ctrls1.bytesWritten               58618688                       # Total number of bytes written to DRAM
system.mem_ctrls1.bytesReadSys              191146432                       # Total read bytes from the system interface side
system.mem_ctrls1.bytesWrittenSys            58620224                       # Total written bytes from the system interface side
system.mem_ctrls1.servicedByWrQ                   483                       # Number of DRAM read bursts serviced by the write queue
system.mem_ctrls1.mergedWrBursts                    6                       # Number of DRAM write bursts merged with an existing one
system.mem_ctrls1.neitherReadNorWriteReqs            0                       # Number of requests that are neither read nor write
system.mem_ctrls1.perBankRdBursts::0           193928                       # Per bank write bursts
system.mem_ctrls1.perBankRdBursts::1           190715                       # Per bank write bursts
system.mem_ctrls1.perBankRdBursts::2           192043                       # Per bank write bursts
system.mem_ctrls1.perBankRdBursts::3           190181                       # Per bank write bursts
system.mem_ctrls1.perBankRdBursts::4           192390                       # Per bank write bursts
system.mem_ctrls1.perBankRdBursts::5           191238                       # Per bank write bursts
system.mem_ctrls1.perBankRdBursts::6           185168                       # Per bank write bursts
system.mem_ctrls1.perBankRdBursts::7           183008                       # Per bank write bursts
system.mem_ctrls1.perBankRdBursts::8           177484                       # Per bank write bursts
system.mem_ctrls1.perBankRdBursts::9           173863                       # Per bank write bursts
system.mem_ctrls1.perBankRdBursts::10          178166                       # Per bank write bursts
system.mem_ctrls1.perBankRdBursts::11          183197                       # Per bank write bursts
system.mem_ctrls1.perBankRdBursts::12          184599                       # Per bank write bursts
system.mem_ctrls1.perBankRdBursts::13          187193                       # Per bank write bursts
system.mem_ctrls1.perBankRdBursts::14          190766                       # Per bank write bursts
system.mem_ctrls1.perBankRdBursts::15          192241                       # Per bank write bursts
system.mem_ctrls1.perBankWrBursts::0            60324                       # Per bank write bursts
system.mem_ctrls1.perBankWrBursts::1            58344                       # Per bank write bursts
system.mem_ctrls1.perBankWrBursts::2            58451                       # Per bank write bursts
system.mem_ctrls1.perBankWrBursts::3            57774                       # Per bank write bursts
system.mem_ctrls1.perBankWrBursts::4            57583                       # Per bank write bursts
system.mem_ctrls1.perBankWrBursts::5            57319                       # Per bank write bursts
system.mem_ctrls1.perBankWrBursts::6            56504                       # Per bank write bursts
system.mem_ctrls1.perBankWrBursts::7            56888                       # Per bank write bursts
system.mem_ctrls1.perBankWrBursts::8            55592                       # Per bank write bursts
system.mem_ctrls1.perBankWrBursts::9            54992                       # Per bank write bursts
system.mem_ctrls1.perBankWrBursts::10           55622                       # Per bank write bursts
system.mem_ctrls1.perBankWrBursts::11           56247                       # Per bank write bursts
system.mem_ctrls1.perBankWrBursts::12           56532                       # Per bank write bursts
system.mem_ctrls1.perBankWrBursts::13           56840                       # Per bank write bursts
system.mem_ctrls1.perBankWrBursts::14           57909                       # Per bank write bursts
system.mem_ctrls1.perBankWrBursts::15           58996                       # Per bank write bursts
system.mem_ctrls1.numRdRetry                        0                       # Number of times read queue was full causing retry
system.mem_ctrls1.numWrRetry                        0                       # Number of times write queue was full causing retry
system.mem_ctrls1.totGap                 1979122064499                       # Total gap between requests
system.mem_ctrls1.readPktSize::0                    0                       # Read request sizes (log2)
system.mem_ctrls1.readPktSize::1                    0                       # Read request sizes (log2)
system.mem_ctrls1.readPktSize::2                    0                       # Read request sizes (log2)
system.mem_ctrls1.readPktSize::3                    0                       # Read request sizes (log2)
system.mem_ctrls1.readPktSize::4                    0                       # Read request sizes (log2)
system.mem_ctrls1.readPktSize::5                    0                       # Read request sizes (log2)
system.mem_ctrls1.readPktSize::6              2986663                       # Read request sizes (log2)
system.mem_ctrls1.writePktSize::0                   0                       # Write request sizes (log2)
system.mem_ctrls1.writePktSize::1                   0                       # Write request sizes (log2)
system.mem_ctrls1.writePktSize::2                   0                       # Write request sizes (log2)
system.mem_ctrls1.writePktSize::3                   0                       # Write request sizes (log2)
system.mem_ctrls1.writePktSize::4                   0                       # Write request sizes (log2)
system.mem_ctrls1.writePktSize::5                   0                       # Write request sizes (log2)
system.mem_ctrls1.writePktSize::6              915941                       # Write request sizes (log2)
system.mem_ctrls1.rdQLenPdf::0                2438059                       # What read queue length does an incoming req see
system.mem_ctrls1.rdQLenPdf::1                 487400                       # What read queue length does an incoming req see
system.mem_ctrls1.rdQLenPdf::2                  57766                       # What read queue length does an incoming req see
system.mem_ctrls1.rdQLenPdf::3                   2955                       # What read queue length does an incoming req see
system.mem_ctrls1.rdQLenPdf::4                      0                       # What read queue length does an incoming req see
system.mem_ctrls1.rdQLenPdf::5                      0                       # What read queue length does an incoming req see
system.mem_ctrls1.rdQLenPdf::6                      0                       # What read queue length does an incoming req see
system.mem_ctrls1.rdQLenPdf::7                      0                       # What read queue length does an incoming req see
system.mem_ctrls1.rdQLenPdf::8                      0                       # What read queue length does an incoming req see
system.mem_ctrls1.rdQLenPdf::9                      0                       # What read queue length does an incoming req see
system.mem_ctrls1.rdQLenPdf::10                     0                       # What read queue length does an incoming req see
system.mem_ctrls1.rdQLenPdf::11                     0                       # What read queue length does an incoming req see
system.mem_ctrls1.rdQLenPdf::12                     0                       # What read queue length does an incoming req see
system.mem_ctrls1.rdQLenPdf::13                     0                       # What read queue length does an incoming req see
system.mem_ctrls1.rdQLenPdf::14                     0                       # What read queue length does an incoming req see
system.mem_ctrls1.rdQLenPdf::15                     0                       # What read queue length does an incoming req see
system.mem_ctrls1.rdQLenPdf::16                     0                       # What read queue length does an incoming req see
system.mem_ctrls1.rdQLenPdf::17                     0                       # What read queue length does an incoming req see
system.mem_ctrls1.rdQLenPdf::18                     0                       # What read queue length does an incoming req see
system.mem_ctrls1.rdQLenPdf::19                     0                       # What read queue length does an incoming req see
system.mem_ctrls1.rdQLenPdf::20                     0                       # What read queue length does an incoming req see
system.mem_ctrls1.rdQLenPdf::21                     0                       # What read queue length does an incoming req see
system.mem_ctrls1.rdQLenPdf::22                     0                       # What read queue length does an incoming req see
system.mem_ctrls1.rdQLenPdf::23                     0                       # What read queue length does an incoming req see
system.mem_ctrls1.rdQLenPdf::24                     0                       # What read queue length does an incoming req see
system.mem_ctrls1.rdQLenPdf::25                     0                       # What read queue length does an incoming req see
system.mem_ctrls1.rdQLenPdf::26                     0                       # What read queue length does an incoming req see
system.mem_ctrls1.rdQLenPdf::27                     0                       # What read queue length does an incoming req see
system.mem_ctrls1.rdQLenPdf::28                     0                       # What read queue length does an incoming req see
system.mem_ctrls1.rdQLenPdf::29                     0                       # What read queue length does an incoming req see
system.mem_ctrls1.rdQLenPdf::30                     0                       # What read queue length does an incoming req see
system.mem_ctrls1.rdQLenPdf::31                     0                       # What read queue length does an incoming req see
system.mem_ctrls1.wrQLenPdf::0                      2                       # What write queue length does an incoming req see
system.mem_ctrls1.wrQLenPdf::1                      2                       # What write queue length does an incoming req see
system.mem_ctrls1.wrQLenPdf::2                      2                       # What write queue length does an incoming req see
system.mem_ctrls1.wrQLenPdf::3                      2                       # What write queue length does an incoming req see
system.mem_ctrls1.wrQLenPdf::4                      2                       # What write queue length does an incoming req see
system.mem_ctrls1.wrQLenPdf::5                      2                       # What write queue length does an incoming req see
system.mem_ctrls1.wrQLenPdf::6                      2                       # What write queue length does an incoming req see
system.mem_ctrls1.wrQLenPdf::7                      2                       # What write queue length does an incoming req see
system.mem_ctrls1.wrQLenPdf::8                      2                       # What write queue length does an incoming req see
system.mem_ctrls1.wrQLenPdf::9                      2                       # What write queue length does an incoming req see
system.mem_ctrls1.wrQLenPdf::10                     2                       # What write queue length does an incoming req see
system.mem_ctrls1.wrQLenPdf::11                     2                       # What write queue length does an incoming req see
system.mem_ctrls1.wrQLenPdf::12                     2                       # What write queue length does an incoming req see
system.mem_ctrls1.wrQLenPdf::13                     2                       # What write queue length does an incoming req see
system.mem_ctrls1.wrQLenPdf::14                     2                       # What write queue length does an incoming req see
system.mem_ctrls1.wrQLenPdf::15                 33764                       # What write queue length does an incoming req see
system.mem_ctrls1.wrQLenPdf::16                 35559                       # What write queue length does an incoming req see
system.mem_ctrls1.wrQLenPdf::17                 50151                       # What write queue length does an incoming req see
system.mem_ctrls1.wrQLenPdf::18                 52717                       # What write queue length does an incoming req see
system.mem_ctrls1.wrQLenPdf::19                 53265                       # What write queue length does an incoming req see
system.mem_ctrls1.wrQLenPdf::20                 53372                       # What write queue length does an incoming req see
system.mem_ctrls1.wrQLenPdf::21                 53500                       # What write queue length does an incoming req see
system.mem_ctrls1.wrQLenPdf::22                 53880                       # What write queue length does an incoming req see
system.mem_ctrls1.wrQLenPdf::23                 53471                       # What write queue length does an incoming req see
system.mem_ctrls1.wrQLenPdf::24                 53104                       # What write queue length does an incoming req see
system.mem_ctrls1.wrQLenPdf::25                 53011                       # What write queue length does an incoming req see
system.mem_ctrls1.wrQLenPdf::26                 52980                       # What write queue length does an incoming req see
system.mem_ctrls1.wrQLenPdf::27                 53066                       # What write queue length does an incoming req see
system.mem_ctrls1.wrQLenPdf::28                 52984                       # What write queue length does an incoming req see
system.mem_ctrls1.wrQLenPdf::29                 52848                       # What write queue length does an incoming req see
system.mem_ctrls1.wrQLenPdf::30                 52838                       # What write queue length does an incoming req see
system.mem_ctrls1.wrQLenPdf::31                 52590                       # What write queue length does an incoming req see
system.mem_ctrls1.wrQLenPdf::32                 52594                       # What write queue length does an incoming req see
system.mem_ctrls1.wrQLenPdf::33                   181                       # What write queue length does an incoming req see
system.mem_ctrls1.wrQLenPdf::34                    24                       # What write queue length does an incoming req see
system.mem_ctrls1.wrQLenPdf::35                     5                       # What write queue length does an incoming req see
system.mem_ctrls1.wrQLenPdf::36                     1                       # What write queue length does an incoming req see
system.mem_ctrls1.wrQLenPdf::37                     0                       # What write queue length does an incoming req see
system.mem_ctrls1.wrQLenPdf::38                     0                       # What write queue length does an incoming req see
system.mem_ctrls1.wrQLenPdf::39                     0                       # What write queue length does an incoming req see
system.mem_ctrls1.wrQLenPdf::40                     0                       # What write queue length does an incoming req see
system.mem_ctrls1.wrQLenPdf::41                     0                       # What write queue length does an incoming req see
system.mem_ctrls1.wrQLenPdf::42                     0                       # What write queue length does an incoming req see
system.mem_ctrls1.wrQLenPdf::43                     0                       # What write queue length does an incoming req see
system.mem_ctrls1.wrQLenPdf::44                     0                       # What write queue length does an incoming req see
system.mem_ctrls1.wrQLenPdf::45                     0                       # What write queue length does an incoming req see
system.mem_ctrls1.wrQLenPdf::46                     0                       # What write queue length does an incoming req see
system.mem_ctrls1.wrQLenPdf::47                     0                       # What write queue length does an incoming req see
system.mem_ctrls1.wrQLenPdf::48                     0                       # What write queue length does an incoming req see
system.mem_ctrls1.wrQLenPdf::49                     0                       # What write queue length does an incoming req see
system.mem_ctrls1.wrQLenPdf::50                     0                       # What write queue length does an incoming req see
system.mem_ctrls1.wrQLenPdf::51                     0                       # What write queue length does an incoming req see
system.mem_ctrls1.wrQLenPdf::52                     0                       # What write queue length does an incoming req see
system.mem_ctrls1.wrQLenPdf::53                     0                       # What write queue length does an incoming req see
system.mem_ctrls1.wrQLenPdf::54                     0                       # What write queue length does an incoming req see
system.mem_ctrls1.wrQLenPdf::55                     0                       # What write queue length does an incoming req see
system.mem_ctrls1.wrQLenPdf::56                     0                       # What write queue length does an incoming req see
system.mem_ctrls1.wrQLenPdf::57                     0                       # What write queue length does an incoming req see
system.mem_ctrls1.wrQLenPdf::58                     0                       # What write queue length does an incoming req see
system.mem_ctrls1.wrQLenPdf::59                     0                       # What write queue length does an incoming req see
system.mem_ctrls1.wrQLenPdf::60                     0                       # What write queue length does an incoming req see
system.mem_ctrls1.wrQLenPdf::61                     0                       # What write queue length does an incoming req see
system.mem_ctrls1.wrQLenPdf::62                     0                       # What write queue length does an incoming req see
system.mem_ctrls1.wrQLenPdf::63                     0                       # What write queue length does an incoming req see
system.mem_ctrls1.bytesPerActivate::samples      3293767                       # Bytes accessed per row activation
system.mem_ctrls1.bytesPerActivate::mean    75.820105                       # Bytes accessed per row activation
system.mem_ctrls1.bytesPerActivate::gmean    70.621955                       # Bytes accessed per row activation
system.mem_ctrls1.bytesPerActivate::stdev    45.003242                       # Bytes accessed per row activation
system.mem_ctrls1.bytesPerActivate::0-127      2940694     89.28%     89.28% # Bytes accessed per row activation
system.mem_ctrls1.bytesPerActivate::128-255       291848      8.86%     98.14% # Bytes accessed per row activation
system.mem_ctrls1.bytesPerActivate::256-383        42384      1.29%     99.43% # Bytes accessed per row activation
system.mem_ctrls1.bytesPerActivate::384-511        12432      0.38%     99.81% # Bytes accessed per row activation
system.mem_ctrls1.bytesPerActivate::512-639         4563      0.14%     99.94% # Bytes accessed per row activation
system.mem_ctrls1.bytesPerActivate::640-767         1322      0.04%     99.98% # Bytes accessed per row activation
system.mem_ctrls1.bytesPerActivate::768-895          308      0.01%     99.99% # Bytes accessed per row activation
system.mem_ctrls1.bytesPerActivate::896-1023          122      0.00%    100.00% # Bytes accessed per row activation
system.mem_ctrls1.bytesPerActivate::1024-1151           94      0.00%    100.00% # Bytes accessed per row activation
system.mem_ctrls1.bytesPerActivate::total      3293767                       # Bytes accessed per row activation
system.mem_ctrls1.rdPerTurnAround::samples        52521                       # Reads before turning the bus around for writes
system.mem_ctrls1.rdPerTurnAround::mean     56.856743                       # Reads before turning the bus around for writes
system.mem_ctrls1.rdPerTurnAround::gmean    49.349746                       # Reads before turning the bus around for writes
system.mem_ctrls1.rdPerTurnAround::stdev    95.765851                       # Reads before turning the bus around for writes
system.mem_ctrls1.rdPerTurnAround::0-1023        52519    100.00%    100.00% # Reads before turning the bus around for writes
system.mem_ctrls1.rdPerTurnAround::3072-4095            1      0.00%    100.00% # Reads before turning the bus around for writes
system.mem_ctrls1.rdPerTurnAround::19456-20479            1      0.00%    100.00% # Reads before turning the bus around for writes
system.mem_ctrls1.rdPerTurnAround::total        52521                       # Reads before turning the bus around for writes
system.mem_ctrls1.wrPerTurnAround::samples        52521                       # Writes before turning the bus around for reads
system.mem_ctrls1.wrPerTurnAround::mean     17.439062                       # Writes before turning the bus around for reads
system.mem_ctrls1.wrPerTurnAround::gmean    17.405949                       # Writes before turning the bus around for reads
system.mem_ctrls1.wrPerTurnAround::stdev     1.068086                       # Writes before turning the bus around for reads
system.mem_ctrls1.wrPerTurnAround::16           16867     32.11%     32.11% # Writes before turning the bus around for reads
system.mem_ctrls1.wrPerTurnAround::17            1529      2.91%     35.03% # Writes before turning the bus around for reads
system.mem_ctrls1.wrPerTurnAround::18           29048     55.31%     90.33% # Writes before turning the bus around for reads
system.mem_ctrls1.wrPerTurnAround::19            4434      8.44%     98.78% # Writes before turning the bus around for reads
system.mem_ctrls1.wrPerTurnAround::20             569      1.08%     99.86% # Writes before turning the bus around for reads
system.mem_ctrls1.wrPerTurnAround::21              69      0.13%     99.99% # Writes before turning the bus around for reads
system.mem_ctrls1.wrPerTurnAround::22               4      0.01%    100.00% # Writes before turning the bus around for reads
system.mem_ctrls1.wrPerTurnAround::25               1      0.00%    100.00% # Writes before turning the bus around for reads
system.mem_ctrls1.wrPerTurnAround::total        52521                       # Writes before turning the bus around for reads
system.mem_ctrls1.totQLat                138630715600                       # Total ticks spent queuing
system.mem_ctrls1.totMemAccLat           194621590600                       # Total ticks spent from burst creation until serviced by the DRAM
system.mem_ctrls1.totBusLat               14930900000                       # Total ticks spent in databus transfers
system.mem_ctrls1.avgQLat                    46424.10                       # Average queueing delay per DRAM burst
system.mem_ctrls1.avgBusLat                   5000.00                       # Average bus latency per DRAM burst
system.mem_ctrls1.avgMemAccLat               65174.10                       # Average memory access latency per DRAM burst
system.mem_ctrls1.avgRdBW                       96.57                       # Average DRAM read bandwidth in MiByte/s
system.mem_ctrls1.avgWrBW                       29.62                       # Average achieved write bandwidth in MiByte/s
system.mem_ctrls1.avgRdBWSys                    96.58                       # Average system read bandwidth in MiByte/s
system.mem_ctrls1.avgWrBWSys                    29.62                       # Average system write bandwidth in MiByte/s
system.mem_ctrls1.peakBW                     12800.00                       # Theoretical peak bandwidth in MiByte/s
system.mem_ctrls1.busUtil                        0.99                       # Data bus utilization in percentage
system.mem_ctrls1.busUtilRead                    0.75                       # Data bus utilization in percentage for reads
system.mem_ctrls1.busUtilWrite                   0.23                       # Data bus utilization in percentage for writes
system.mem_ctrls1.avgRdQLen                      1.07                       # Average read queue length when enqueuing
system.mem_ctrls1.avgWrQLen                     24.37                       # Average write queue length when enqueuing
system.mem_ctrls1.readRowHits                  157202                       # Number of row buffer hits during reads
system.mem_ctrls1.writeRowHits                 451123                       # Number of row buffer hits during writes
system.mem_ctrls1.readRowHitRate                 5.26                       # Row buffer hit rate for reads
system.mem_ctrls1.writeRowHitRate               49.25                       # Row buffer hit rate for writes
system.mem_ctrls1.avgGap                    507128.59                       # Average gap between requests
system.mem_ctrls1.pageHitRate                   15.59                       # Row buffer hit rate, read and write combined
system.mem_ctrls1_0.actEnergy             11929569120                       # Energy for activate commands per rank (pJ)
system.mem_ctrls1_0.preEnergy              6340712565                       # Energy for precharge commands per rank (pJ)
system.mem_ctrls1_0.readEnergy            10843310940                       # Energy for read commands per rank (pJ)
system.mem_ctrls1_0.writeEnergy            2417836140                       # Energy for write commands per rank (pJ)
system.mem_ctrls1_0.refreshEnergy        155745473520.000031                       # Energy for refresh commands per rank (pJ)
system.mem_ctrls1_0.actBackEnergy         82951767120                       # Energy for active background per rank (pJ)
system.mem_ctrls1_0.preBackEnergy          7107114720                       # Energy for precharge background per rank (pJ)
system.mem_ctrls1_0.actPowerDownEnergy   484503354450                       # Energy for active power-down per rank (pJ)
system.mem_ctrls1_0.prePowerDownEnergy   187673839680                       # Energy for precharge power-down per rank (pJ)
system.mem_ctrls1_0.selfRefreshEnergy     71464949805                       # Energy for self refresh per rank (pJ)
system.mem_ctrls1_0.totalEnergy          1021047919920                       # Total energy per rank (pJ)
system.mem_ctrls1_0.averagePower           515.909312                       # Core power per rank (mW)
system.mem_ctrls1_0.totalIdleTime        1778562329960                       # Total Idle time Per DRAM Rank
system.mem_ctrls1_0.memoryStateTime::IDLE   9256830108                       # Time in different power states
system.mem_ctrls1_0.memoryStateTime::REF  66072032000                       # Time in different power states
system.mem_ctrls1_0.memoryStateTime::SREF 227306049371                       # Time in different power states
system.mem_ctrls1_0.memoryStateTime::PRE_PDN 488726834684                       # Time in different power states
system.mem_ctrls1_0.memoryStateTime::ACT 125231626676                       # Time in different power states
system.mem_ctrls1_0.memoryStateTime::ACT_PDN 1062529445905                       # Time in different power states
system.mem_ctrls1_1.actEnergy             11587962960                       # Energy for activate commands per rank (pJ)
system.mem_ctrls1_1.preEnergy              6159133200                       # Energy for precharge commands per rank (pJ)
system.mem_ctrls1_1.readEnergy            10478014260                       # Energy for read commands per rank (pJ)
system.mem_ctrls1_1.writeEnergy            2363250600                       # Energy for write commands per rank (pJ)
system.mem_ctrls1_1.refreshEnergy        157879503600.000031                       # Energy for refresh commands per rank (pJ)
system.mem_ctrls1_1.actBackEnergy         83041142550                       # Energy for active background per rank (pJ)
system.mem_ctrls1_1.preBackEnergy          6946733760                       # Energy for precharge background per rank (pJ)
system.mem_ctrls1_1.actPowerDownEnergy   493728766830                       # Energy for active power-down per rank (pJ)
system.mem_ctrls1_1.prePowerDownEnergy   193590725760                       # Energy for precharge power-down per rank (pJ)
system.mem_ctrls1_1.selfRefreshEnergy     62329489380                       # Energy for self refresh per rank (pJ)
system.mem_ctrls1_1.totalEnergy          1028176230060                       # Total energy per rank (pJ)
system.mem_ctrls1_1.averagePower           519.511074                       # Core power per rank (mW)
system.mem_ctrls1_1.totalIdleTime        1778763764179                       # Total Idle time Per DRAM Rank
system.mem_ctrls1_1.memoryStateTime::IDLE   9032036167                       # Time in different power states
system.mem_ctrls1_1.memoryStateTime::REF  66967852000                       # Time in different power states
system.mem_ctrls1_1.memoryStateTime::SREF 191884376787                       # Time in different power states
system.mem_ctrls1_1.memoryStateTime::PRE_PDN 504146699378                       # Time in different power states
system.mem_ctrls1_1.memoryStateTime::ACT 124358791076                       # Time in different power states
system.mem_ctrls1_1.memoryStateTime::ACT_PDN 1082733063336                       # Time in different power states
system.pwrStateResidencyTicks::UNDEFINED 35282500743105                       # Cumulative time (in ticks) in various power states
system.cpu.branchPred.lookups                       0                       # Number of BP lookups
system.cpu.branchPred.condPredicted                 0                       # Number of conditional branches predicted
system.cpu.branchPred.condIncorrect                 0                       # Number of conditional branches incorrect
system.cpu.branchPred.BTBLookups                    0                       # Number of BTB lookups
system.cpu.branchPred.BTBHits                       0                       # Number of BTB hits
system.cpu.branchPred.BTBCorrect                    0                       # Number of correct BTB predictions (this stat may not work properly.
system.cpu.branchPred.BTBHitPct                   nan                       # BTB Hit Percentage
system.cpu.branchPred.usedRAS                       0                       # Number of times the RAS was used to get a target.
system.cpu.branchPred.RASInCorrect                  0                       # Number of incorrect RAS predictions.
system.cpu.branchPred.indirectLookups               0                       # Number of indirect predictor lookups.
system.cpu.branchPred.indirectHits                  0                       # Number of indirect target hits.
system.cpu.branchPred.indirectMisses                0                       # Number of indirect misses.
system.cpu.branchPredindirectMispredicted            0                       # Number of mispredicted indirect branches.
system.cpu_voltage_domain.voltage                   1                       # Voltage in Volts
system.cpu_clk_domain.clock                       333                       # Clock period in ticks
system.cpu.dtb.fetch_hits                           0                       # ITB hits
system.cpu.dtb.fetch_misses                         0                       # ITB misses
system.cpu.dtb.fetch_acv                            0                       # ITB acv
system.cpu.dtb.fetch_accesses                       0                       # ITB accesses
system.cpu.dtb.read_hits                           16                       # DTB read hits
system.cpu.dtb.read_misses                          0                       # DTB read misses
system.cpu.dtb.read_acv                             0                       # DTB read access violations
system.cpu.dtb.read_accesses                       16                       # DTB read accesses
system.cpu.dtb.write_hits                           1                       # DTB write hits
system.cpu.dtb.write_misses                         0                       # DTB write misses
system.cpu.dtb.write_acv                            0                       # DTB write access violations
system.cpu.dtb.write_accesses                       1                       # DTB write accesses
system.cpu.dtb.data_hits                           17                       # DTB hits
system.cpu.dtb.data_misses                          0                       # DTB misses
system.cpu.dtb.data_acv                             0                       # DTB access violations
system.cpu.dtb.data_accesses                       17                       # DTB accesses
system.cpu.itb.fetch_hits                           4                       # ITB hits
system.cpu.itb.fetch_misses                         0                       # ITB misses
system.cpu.itb.fetch_acv                            0                       # ITB acv
system.cpu.itb.fetch_accesses                       4                       # ITB accesses
system.cpu.itb.read_hits                            0                       # DTB read hits
system.cpu.itb.read_misses                          0                       # DTB read misses
system.cpu.itb.read_acv                             0                       # DTB read access violations
system.cpu.itb.read_accesses                        0                       # DTB read accesses
system.cpu.itb.write_hits                           0                       # DTB write hits
system.cpu.itb.write_misses                         0                       # DTB write misses
system.cpu.itb.write_acv                            0                       # DTB write access violations
system.cpu.itb.write_accesses                       0                       # DTB write accesses
system.cpu.itb.data_hits                            0                       # DTB hits
system.cpu.itb.data_misses                          0                       # DTB misses
system.cpu.itb.data_acv                             0                       # DTB access violations
system.cpu.itb.data_accesses                        0                       # DTB accesses
system.cpu.workload.num_syscalls                    0                       # Number of system calls
system.cpu.pwrStateResidencyTicks::ON    1979122818744                       # Cumulative time (in ticks) in various power states
system.cpu.numCycles                             1404                       # number of cpu cycles simulated
system.cpu.numWorkItemsStarted                      0                       # number of work items this cpu started
system.cpu.numWorkItemsCompleted                    0                       # number of work items this cpu completed
system.cpu.fetch.icacheStallCycles                 65                       # Number of cycles fetch is stalled on an Icache miss
system.cpu.fetch.Insts                             17                       # Number of instructions fetch has processed
system.cpu.fetch.Cycles                             3                       # Number of cycles fetch has run and was not squashing or blocked
system.cpu.fetch.SquashCycles                       3                       # Number of cycles fetch has spent squashing
system.cpu.fetch.PendingDrainCycles                 6                       # Number of cycles fetch has spent waiting on pipes to drain
system.cpu.fetch.CacheLines                         4                       # Number of cache lines fetched
system.cpu.fetch.IcacheSquashes                     2                       # Number of outstanding Icache misses that were squashed
system.cpu.fetch.rateDist::samples                 75                       # Number of instructions fetched each cycle (Total)
system.cpu.fetch.rateDist::mean              0.226667                       # Number of instructions fetched each cycle (Total)
system.cpu.fetch.rateDist::stdev             1.300450                       # Number of instructions fetched each cycle (Total)
system.cpu.fetch.rateDist::underflows               0      0.00%      0.00% # Number of instructions fetched each cycle (Total)
system.cpu.fetch.rateDist::0                       72     96.00%     96.00% # Number of instructions fetched each cycle (Total)
system.cpu.fetch.rateDist::1                        1      1.33%     97.33% # Number of instructions fetched each cycle (Total)
system.cpu.fetch.rateDist::2                        0      0.00%     97.33% # Number of instructions fetched each cycle (Total)
system.cpu.fetch.rateDist::3                        0      0.00%     97.33% # Number of instructions fetched each cycle (Total)
system.cpu.fetch.rateDist::4                        0      0.00%     97.33% # Number of instructions fetched each cycle (Total)
system.cpu.fetch.rateDist::5                        0      0.00%     97.33% # Number of instructions fetched each cycle (Total)
system.cpu.fetch.rateDist::6                        0      0.00%     97.33% # Number of instructions fetched each cycle (Total)
system.cpu.fetch.rateDist::7                        0      0.00%     97.33% # Number of instructions fetched each cycle (Total)
[...]
system.switch_cpus_1.iq.rate                 1.133598                       # Inst issue rate
system.switch_cpus_1.iq.fu_busy_cnt          75237025                       # FU busy when requested
system.switch_cpus_1.iq.fu_busy_rate         0.073156                       # FU busy rate (busy events/executed inst)
system.switch_cpus_1.iq.int_inst_queue_reads   1207765623                       # Number of integer instruction queue reads
system.switch_cpus_1.iq.int_inst_queue_writes    140377539                       # Number of integer instruction queue writes
system.switch_cpus_1.iq.int_inst_queue_wakeup_accesses    138442792                       # Number of integer instruction queue wakeup accesses
system.switch_cpus_1.iq.fp_inst_queue_reads   1831776016                       # Number of floating instruction queue reads
system.switch_cpus_1.iq.fp_inst_queue_writes    870561179                       # Number of floating instruction queue writes
system.switch_cpus_1.iq.fp_inst_queue_wakeup_accesses    864554751                       # Number of floating instruction queue wakeup accesses
system.switch_cpus_1.iq.int_alu_accesses    157624913                       # Number of integer alu accesses
system.switch_cpus_1.iq.fp_alu_accesses     946056763                       # Number of floating point alu accesses
system.switch_cpus_1.iew.lsq.thread0.forwLoads     46089401                       # Number of loads that had data forwarded from stores
system.switch_cpus_1.iew.lsq.thread0.invAddrLoads            0                       # Number of loads ignored due to an invalid address
system.switch_cpus_1.iew.lsq.thread0.squashedLoads      2052255                       # Number of loads squashed
system.switch_cpus_1.iew.lsq.thread0.ignoredResponses         1927                       # Number of memory responses ignored because the instruction is squashed
system.switch_cpus_1.iew.lsq.thread0.memOrderViolation       103640                       # Number of memory ordering violations
system.switch_cpus_1.iew.lsq.thread0.squashedStores      1089506                       # Number of stores squashed
system.switch_cpus_1.iew.lsq.thread0.invAddrSwpfs            0                       # Number of software prefetches ignored due to an invalid address
system.switch_cpus_1.iew.lsq.thread0.blockedLoads            0                       # Number of blocked loads due to partial load-store forwarding
system.switch_cpus_1.iew.lsq.thread0.rescheduledLoads            0                       # Number of loads that were rescheduled
system.switch_cpus_1.iew.lsq.thread0.cacheBlocked     25884724                       # Number of times an access to memory failed due to the cache being blocked
system.switch_cpus_1.iew.iewIdleCycles              0                       # Number of cycles IEW is idle
system.switch_cpus_1.iew.iewSquashCycles       124356                       # Number of cycles IEW is squashing
system.switch_cpus_1.iew.iewBlockCycles     102527716                       # Number of cycles IEW is blocking
system.switch_cpus_1.iew.iewUnblockCycles    177628805                       # Number of cycles IEW is unblocking
system.switch_cpus_1.iew.iewDispatchedInsts   1005417886                       # Number of instructions dispatched to IQ
system.switch_cpus_1.iew.iewDispSquashedInsts        10213                       # Number of squashed instructions skipped by dispatch
system.switch_cpus_1.iew.iewDispLoadInsts    413161524                       # Number of dispatched load instructions
system.switch_cpus_1.iew.iewDispStoreInsts    190860731                       # Number of dispatched store instructions
system.switch_cpus_1.iew.iewDispNonSpecInsts            0                       # Number of dispatched non-speculative instructions
system.switch_cpus_1.iew.iewIQFullEvents        84401                       # Number of times the IQ has become full, causing a stall
system.switch_cpus_1.iew.iewLSQFullEvents    177188438                       # Number of times the LSQ has become full, causing a stall
system.switch_cpus_1.iew.memOrderViolationEvents       103640                       # Number of memory order violations
system.switch_cpus_1.iew.predictedTakenIncorrect         6747                       # Number of branches that were predicted taken incorrectly
system.switch_cpus_1.iew.predictedNotTakenIncorrect          102                       # Number of branches that were predicted not taken incorrectly
system.switch_cpus_1.iew.branchMispredicts         6849                       # Number of branch mispredicts detected at execute
system.switch_cpus_1.iew.iewExecutedInsts   1028135915                       # Number of executed instructions
system.switch_cpus_1.iew.iewExecLoadInsts    437290374                       # Number of load instructions executed
system.switch_cpus_1.iew.iewExecSquashedInsts       308726                       # Number of squashed instructions skipped in execute
system.switch_cpus_1.iew.exec_swp                   0                       # number of swp insts executed
system.switch_cpus_1.iew.exec_nop                 161                       # number of nop insts executed
system.switch_cpus_1.iew.exec_refs          627535759                       # number of memory reference insts executed
system.switch_cpus_1.iew.exec_branches         829599                       # Number of branches executed
system.switch_cpus_1.iew.exec_stores        190245385                       # Number of stores executed
system.switch_cpus_1.iew.exec_rate           1.133258                       # Inst execution rate
system.switch_cpus_1.iew.wb_sent           1003276914                       # cumulative count of insts sent to commit
system.switch_cpus_1.iew.wb_count          1002997543                       # cumulative count of insts written-back
system.switch_cpus_1.iew.wb_producers       657268735                       # num instructions producing a value
system.switch_cpus_1.iew.wb_consumers       683804946                       # num instructions consuming a value
system.switch_cpus_1.iew.wb_rate             1.105549                       # insts written-back per cycle
system.switch_cpus_1.iew.wb_fanout           0.961193                       # average fanout of values written-back
system.switch_cpus_1.commit.commitSquashedInsts      5222076                       # The number of squashed insts skipped by commit
system.switch_cpus_1.commit.branchMispredicts         6821                       # The number of times a branch was mispredicted
system.switch_cpus_1.commit.committed_per_cycle::samples    906510311                       # Number of insts commited each cycle
system.switch_cpus_1.commit.committed_per_cycle::mean     1.103132                       # Number of insts commited each cycle
system.switch_cpus_1.commit.committed_per_cycle::stdev     2.535798                       # Number of insts commited each cycle
system.switch_cpus_1.commit.committed_per_cycle::underflows            0      0.00%      0.00% # Number of insts commited each cycle
system.switch_cpus_1.commit.committed_per_cycle::0    734167392     80.99%     80.99% # Number of insts commited each cycle
system.switch_cpus_1.commit.committed_per_cycle::1     14487791      1.60%     82.59% # Number of insts commited each cycle
system.switch_cpus_1.commit.committed_per_cycle::2     15456081      1.71%     84.29% # Number of insts commited each cycle
system.switch_cpus_1.commit.committed_per_cycle::3     12000858      1.32%     85.62% # Number of insts commited each cycle
system.switch_cpus_1.commit.committed_per_cycle::4     14917908      1.65%     87.26% # Number of insts commited each cycle
system.switch_cpus_1.commit.committed_per_cycle::5     12299886      1.36%     88.62% # Number of insts commited each cycle
system.switch_cpus_1.commit.committed_per_cycle::6      9219054      1.02%     89.63% # Number of insts commited each cycle
system.switch_cpus_1.commit.committed_per_cycle::7      9578552      1.06%     90.69% # Number of insts commited each cycle
system.switch_cpus_1.commit.committed_per_cycle::8     84382789      9.31%    100.00% # Number of insts commited each cycle
system.switch_cpus_1.commit.committed_per_cycle::overflows            0      0.00%    100.00% # Number of insts commited each cycle
system.switch_cpus_1.commit.committed_per_cycle::min_value            0                       # Number of insts commited each cycle
system.switch_cpus_1.commit.committed_per_cycle::max_value            8                       # Number of insts commited each cycle
system.switch_cpus_1.commit.committed_per_cycle::total    906510311                       # Number of insts commited each cycle
system.switch_cpus_1.commit.committedInsts   1000000089                       # Number of instructions committed
system.switch_cpus_1.commit.committedOps   1000000089                       # Number of ops (including micro ops) committed
system.switch_cpus_1.commit.swp_count               0                       # Number of s/w prefetches committed
system.switch_cpus_1.commit.refs            600880451                       # Number of memory references committed
system.switch_cpus_1.commit.loads           411109243                       # Number of loads committed
system.switch_cpus_1.commit.membars                 0                       # Number of memory barriers committed
system.switch_cpus_1.commit.branches           809662                       # Number of branches committed
system.switch_cpus_1.commit.fp_insts        862748482                       # Number of committed floating point instructions.
system.switch_cpus_1.commit.int_insts       676693316                       # Number of committed integer instructions.
system.switch_cpus_1.commit.function_calls            0                       # Number of function calls committed.
system.switch_cpus_1.commit.op_class_0::No_OpClass           84      0.00%      0.00% # Class of committed instruction
system.switch_cpus_1.commit.op_class_0::IntAlu     75815300      7.58%      7.58% # Class of committed instruction
system.switch_cpus_1.commit.op_class_0::IntMult          868      0.00%      7.58% # Class of committed instruction
system.switch_cpus_1.commit.op_class_0::IntDiv            0      0.00%      7.58% # Class of committed instruction
system.switch_cpus_1.commit.op_class_0::FloatAdd    180561158     18.06%     25.64% # Class of committed instruction
system.switch_cpus_1.commit.op_class_0::FloatCmp            0      0.00%     25.64% # Class of committed instruction
system.switch_cpus_1.commit.op_class_0::FloatCvt            0      0.00%     25.64% # Class of committed instruction
system.switch_cpus_1.commit.op_class_0::FloatMult    142352479     14.24%     39.87% # Class of committed instruction
system.switch_cpus_1.commit.op_class_0::FloatMultAcc            0      0.00%     39.87% # Class of committed instruction
system.switch_cpus_1.commit.op_class_0::FloatDiv       389749      0.04%     39.91% # Class of committed instruction
system.switch_cpus_1.commit.op_class_0::FloatMisc            0      0.00%     39.91% # Class of committed instruction
system.switch_cpus_1.commit.op_class_0::FloatSqrt            0      0.00%     39.91% # Class of committed instruction
system.switch_cpus_1.commit.op_class_0::SimdAdd            0      0.00%     39.91% # Class of committed instruction
system.switch_cpus_1.commit.op_class_0::SimdAddAcc            0      0.00%     39.91% # Class of committed instruction
system.switch_cpus_1.commit.op_class_0::SimdAlu            0      0.00%     39.91% # Class of committed instruction
system.switch_cpus_1.commit.op_class_0::SimdCmp            0      0.00%     39.91% # Class of committed instruction
system.switch_cpus_1.commit.op_class_0::SimdCvt            0      0.00%     39.91% # Class of committed instruction
system.switch_cpus_1.commit.op_class_0::SimdMisc            0      0.00%     39.91% # Class of committed instruction
system.switch_cpus_1.commit.op_class_0::SimdMult            0      0.00%     39.91% # Class of committed instruction
system.switch_cpus_1.commit.op_class_0::SimdMultAcc            0      0.00%     39.91% # Class of committed instruction
system.switch_cpus_1.commit.op_class_0::SimdShift            0      0.00%     39.91% # Class of committed instruction
system.switch_cpus_1.commit.op_class_0::SimdShiftAcc            0      0.00%     39.91% # Class of committed instruction
system.switch_cpus_1.commit.op_class_0::SimdSqrt            0      0.00%     39.91% # Class of committed instruction
system.switch_cpus_1.commit.op_class_0::SimdFloatAdd            0      0.00%     39.91% # Class of committed instruction
system.switch_cpus_1.commit.op_class_0::SimdFloatAlu            0      0.00%     39.91% # Class of committed instruction
system.switch_cpus_1.commit.op_class_0::SimdFloatCmp            0      0.00%     39.91% # Class of committed instruction
system.switch_cpus_1.commit.op_class_0::SimdFloatCvt            0      0.00%     39.91% # Class of committed instruction
system.switch_cpus_1.commit.op_class_0::SimdFloatDiv            0      0.00%     39.91% # Class of committed instruction
system.switch_cpus_1.commit.op_class_0::SimdFloatMisc            0      0.00%     39.91% # Class of committed instruction
system.switch_cpus_1.commit.op_class_0::SimdFloatMult            0      0.00%     39.91% # Class of committed instruction
system.switch_cpus_1.commit.op_class_0::SimdFloatMultAcc            0      0.00%     39.91% # Class of committed instruction
system.switch_cpus_1.commit.op_class_0::SimdFloatSqrt            0      0.00%     39.91% # Class of committed instruction
system.switch_cpus_1.commit.op_class_0::MemRead     41019722      4.10%     44.01% # Class of committed instruction
system.switch_cpus_1.commit.op_class_0::MemWrite     20415633      2.04%     46.06% # Class of committed instruction
system.switch_cpus_1.commit.op_class_0::FloatMemRead    370089521     37.01%     83.06% # Class of committed instruction
system.switch_cpus_1.commit.op_class_0::FloatMemWrite    169355575     16.94%    100.00% # Class of committed instruction
system.switch_cpus_1.commit.op_class_0::IprAccess            0      0.00%    100.00% # Class of committed instruction
system.switch_cpus_1.commit.op_class_0::InstPrefetch            0      0.00%    100.00% # Class of committed instruction
system.switch_cpus_1.commit.op_class_0::total   1000000089                       # Class of committed instruction
system.switch_cpus_1.commit.bw_lim_events     84382789                       # number cycles where commit BW limit reached
system.switch_cpus_1.rob.rob_reads         1826965485                       # The number of ROB reads
system.switch_cpus_1.rob.rob_writes        2011170049                       # The number of ROB writes
system.switch_cpus_1.timesIdled                    34                       # Number of times that the entire CPU went into an idle state and unscheduled itself
system.switch_cpus_1.idleCycles                  8569                       # Total number of cycles that the CPU has spent unscheduled due to idling
system.switch_cpus_1.committedInsts        1000000005                       # Number of Instructions Simulated
system.switch_cpus_1.committedOps          1000000005                       # Number of Ops (including micro ops) Simulated
system.switch_cpus_1.cpi                     0.907239                       # CPI: Cycles Per Instruction
system.switch_cpus_1.cpi_total               0.907239                       # CPI: Total CPI of All Threads
system.switch_cpus_1.ipc                     1.102245                       # IPC: Instructions Per Cycle
system.switch_cpus_1.ipc_total               1.102245                       # IPC: Total IPC of All Threads
system.switch_cpus_1.int_regfile_reads      726894395                       # number of integer regfile reads
system.switch_cpus_1.int_regfile_writes     117143366                       # number of integer regfile writes
system.switch_cpus_1.fp_regfile_reads       817576841                       # number of floating regfile reads
system.switch_cpus_1.fp_regfile_writes      695008146                       # number of floating regfile writes
system.tol3bus.snoop_filter.tot_requests     13224031                       # Total number of requests made to the snoop filter.
system.tol3bus.snoop_filter.hit_single_requests      6610195                       # Number of requests hitting in the snoop filter with a single holder of the requested data.
system.tol3bus.snoop_filter.hit_multi_requests            0                       # Number of requests hitting in the snoop filter with multiple (>1) holders of the requested data.
system.tol3bus.snoop_filter.tot_snoops        2795179                       # Total number of snoops made to the snoop filter.
system.tol3bus.snoop_filter.hit_single_snoops      2795179                       # Number of snoops hitting in the snoop filter with a single holder of the requested data.
system.tol3bus.snoop_filter.hit_multi_snoops            0                       # Number of snoops hitting in the snoop filter with multiple (>1) holders of the requested data.
system.tol3bus.pwrStateResidencyTicks::UNDEFINED 35282500743105                       # Cumulative time (in ticks) in various power states
system.tol3bus.trans_dist::ReadResp           4704547                       # Transaction distribution
system.tol3bus.trans_dist::WritebackDirty      4021466                       # Transaction distribution
system.tol3bus.trans_dist::CleanEvict         8502710                       # Transaction distribution
system.tol3bus.trans_dist::ReadExReq          1909289                       # Transaction distribution
system.tol3bus.trans_dist::ReadExResp         1909289                       # Transaction distribution
system.tol3bus.trans_dist::ReadSharedReq      4704547                       # Transaction distribution
system.tol3bus.pkt_count_system.cpu.l2.mem_side::system.l3.cpu_side     19837867                       # Packet count per connected master and slave (bytes)
system.tol3bus.pkt_size_system.cpu.l2.mem_side::system.l3.cpu_side    563410048                       # Cumulative packet size per connected master and slave (bytes)
system.tol3bus.snoops                         5913981                       # Total snoops (count)
system.tol3bus.snoopTraffic                 117249280                       # Total snoop traffic (bytes)
system.tol3bus.snoop_fanout::samples         12527817                       # Request fanout histogram
system.tol3bus.snoop_fanout::mean            0.223118                       # Request fanout histogram
system.tol3bus.snoop_fanout::stdev           0.416337                       # Request fanout histogram
system.tol3bus.snoop_fanout::underflows             0      0.00%      0.00% # Request fanout histogram
system.tol3bus.snoop_fanout::0                9732638     77.69%     77.69% # Request fanout histogram
system.tol3bus.snoop_fanout::1                2795179     22.31%    100.00% # Request fanout histogram
system.tol3bus.snoop_fanout::overflows              0      0.00%    100.00% # Request fanout histogram
system.tol3bus.snoop_fanout::min_value              0                       # Request fanout histogram
system.tol3bus.snoop_fanout::max_value              1                       # Request fanout histogram
system.tol3bus.snoop_fanout::total           12527817                       # Request fanout histogram
system.tol3bus.reqLayer0.occupancy         5132687841                       # Layer occupancy (ticks)
system.tol3bus.reqLayer0.utilization              0.3                       # Layer utilization (%)
system.tol3bus.respLayer0.occupancy        4404814776                       # Layer occupancy (ticks)
system.tol3bus.respLayer0.utilization             0.2                       # Layer utilization (%)

---------- End Simulation Statistics   ----------
