
---------- Begin Simulation Statistics ----------
sim_seconds                                  0.968409                       # Number of seconds simulated
sim_ticks                                968409066555                       # Number of ticks simulated
final_tick                               267371039198457                       # Number of ticks from beginning of simulation (restored from checkpoints and never reset)
sim_freq                                 1000000000000                       # Frequency of simulated ticks
host_inst_rate                                 599632                       # Simulator instruction rate (inst/s)
host_op_rate                                   599632                       # Simulator op (including micro ops) rate (op/s)
host_tick_rate                              387125771                       # Simulator tick rate (ticks/s)
host_mem_usage                                2551504                       # Number of bytes of host memory used
host_seconds                                  2501.54                       # Real time elapsed on the host
sim_insts                                  1500000008                       # Number of instructions simulated
sim_ops                                    1500000008                       # Number of ops (including micro ops) simulated
system.voltage_domain.voltage                       1                       # Voltage in Volts
system.clk_domain.clock                          1000                       # Clock period in ticks
system.mem_ctrls0.pwrStateResidencyTicks::UNDEFINED 267371039198457                       # Cumulative time (in ticks) in various power states
system.mem_ctrls0.bytes_read::cpu.inst            128                       # Number of bytes read from this memory
system.mem_ctrls0.bytes_read::cpu.data             64                       # Number of bytes read from this memory
system.mem_ctrls0.bytes_read::switch_cpus.inst         7616                       # Number of bytes read from this memory
system.mem_ctrls0.bytes_read::switch_cpus.data       989696                       # Number of bytes read from this memory
system.mem_ctrls0.bytes_read::switch_cpus_1.inst          832                       # Number of bytes read from this memory
system.mem_ctrls0.bytes_read::switch_cpus_1.data       563712                       # Number of bytes read from this memory
system.mem_ctrls0.bytes_read::total           1562048                       # Number of bytes read from this memory
system.mem_ctrls0.bytes_inst_read::cpu.inst          128                       # Number of instructions bytes read from this memory
system.mem_ctrls0.bytes_inst_read::switch_cpus.inst         7616                       # Number of instructions bytes read from this memory
system.mem_ctrls0.bytes_inst_read::switch_cpus_1.inst          832                       # Number of instructions bytes read from this memory
system.mem_ctrls0.bytes_inst_read::total         8576                       # Number of instructions bytes read from this memory
system.mem_ctrls0.num_reads::cpu.inst               2                       # Number of read requests responded to by this memory
system.mem_ctrls0.num_reads::cpu.data               1                       # Number of read requests responded to by this memory
system.mem_ctrls0.num_reads::switch_cpus.inst          119                       # Number of read requests responded to by this memory
system.mem_ctrls0.num_reads::switch_cpus.data        15464                       # Number of read requests responded to by this memory
system.mem_ctrls0.num_reads::switch_cpus_1.inst           13                       # Number of read requests responded to by this memory
system.mem_ctrls0.num_reads::switch_cpus_1.data         8808                       # Number of read requests responded to by this memory
system.mem_ctrls0.num_reads::total              24407                       # Number of read requests responded to by this memory
system.mem_ctrls0.bw_read::cpu.inst               132                       # Total read bandwidth from this memory (bytes/s)
system.mem_ctrls0.bw_read::cpu.data                66                       # Total read bandwidth from this memory (bytes/s)
system.mem_ctrls0.bw_read::switch_cpus.inst         7864                       # Total read bandwidth from this memory (bytes/s)
system.mem_ctrls0.bw_read::switch_cpus.data      1021981                       # Total read bandwidth from this memory (bytes/s)
system.mem_ctrls0.bw_read::switch_cpus_1.inst          859                       # Total read bandwidth from this memory (bytes/s)
system.mem_ctrls0.bw_read::switch_cpus_1.data       582101                       # Total read bandwidth from this memory (bytes/s)
system.mem_ctrls0.bw_read::total              1613004                       # Total read bandwidth from this memory (bytes/s)
system.mem_ctrls0.bw_inst_read::cpu.inst          132                       # Instruction read bandwidth from this memory (bytes/s)
system.mem_ctrls0.bw_inst_read::switch_cpus.inst         7864                       # Instruction read bandwidth from this memory (bytes/s)
system.mem_ctrls0.bw_inst_read::switch_cpus_1.inst          859                       # Instruction read bandwidth from this memory (bytes/s)
system.mem_ctrls0.bw_inst_read::total            8856                       # Instruction read bandwidth from this memory (bytes/s)
system.mem_ctrls0.bw_total::cpu.inst              132                       # Total bandwidth to/from this memory (bytes/s)
system.mem_ctrls0.bw_total::cpu.data               66                       # Total bandwidth to/from this memory (bytes/s)
system.mem_ctrls0.bw_total::switch_cpus.inst         7864                       # Total bandwidth to/from this memory (bytes/s)
system.mem_ctrls0.bw_total::switch_cpus.data      1021981                       # Total bandwidth to/from this memory (bytes/s)
system.mem_ctrls0.bw_total::switch_cpus_1.inst          859                       # Total bandwidth to/from this memory (bytes/s)
system.mem_ctrls0.bw_total::switch_cpus_1.data       582101                       # Total bandwidth to/from this memory (bytes/s)
system.mem_ctrls0.bw_total::total             1613004                       # Total bandwidth to/from this memory (bytes/s)
system.mem_ctrls0.readReqs                      24407                       # Number of read requests accepted
system.mem_ctrls0.writeReqs                         0                       # Number of write requests accepted
system.mem_ctrls0.readBursts                    24407                       # Number of DRAM read bursts, including those serviced by the write queue
system.mem_ctrls0.writeBursts                       0                       # Number of DRAM write bursts, including those merged in the write queue
system.mem_ctrls0.bytesReadDRAM               1562048                       # Total number of bytes read from DRAM
system.mem_ctrls0.bytesReadWrQ                      0                       # Total number of bytes read from write queue
system.mem_ctrls0.bytesWritten                      0                       # Total number of bytes written to DRAM
system.mem_ctrls0.bytesReadSys                1562048                       # Total read bytes from the system interface side
system.mem_ctrls0.bytesWrittenSys                   0                       # Total written bytes from the system interface side
system.mem_ctrls0.servicedByWrQ                     0                       # Number of DRAM read bursts serviced by the write queue
system.mem_ctrls0.mergedWrBursts                    0                       # Number of DRAM write bursts merged with an existing one
system.mem_ctrls0.neitherReadNorWriteReqs            0                       # Number of requests that are neither read nor write
system.mem_ctrls0.perBankRdBursts::0             1536                       # Per bank write bursts
system.mem_ctrls0.perBankRdBursts::1             1517                       # Per bank write bursts
system.mem_ctrls0.perBankRdBursts::2             1412                       # Per bank write bursts
system.mem_ctrls0.perBankRdBursts::3             1412                       # Per bank write bursts
system.mem_ctrls0.perBankRdBursts::4             1408                       # Per bank write bursts
system.mem_ctrls0.perBankRdBursts::5             1408                       # Per bank write bursts
system.mem_ctrls0.perBankRdBursts::6             1437                       # Per bank write bursts
system.mem_ctrls0.perBankRdBursts::7             1528                       # Per bank write bursts
system.mem_ctrls0.perBankRdBursts::8             1586                       # Per bank write bursts
system.mem_ctrls0.perBankRdBursts::9             1661                       # Per bank write bursts
system.mem_ctrls0.perBankRdBursts::10            1573                       # Per bank write bursts
system.mem_ctrls0.perBankRdBursts::11            1550                       # Per bank write bursts
system.mem_ctrls0.perBankRdBursts::12            1615                       # Per bank write bursts
system.mem_ctrls0.perBankRdBursts::13            1542                       # Per bank write bursts
system.mem_ctrls0.perBankRdBursts::14            1664                       # Per bank write bursts
system.mem_ctrls0.perBankRdBursts::15            1558                       # Per bank write bursts
system.mem_ctrls0.perBankWrBursts::0                0                       # Per bank write bursts
system.mem_ctrls0.perBankWrBursts::1                0                       # Per bank write bursts
system.mem_ctrls0.perBankWrBursts::2                0                       # Per bank write bursts
system.mem_ctrls0.perBankWrBursts::3                0                       # Per bank write bursts
system.mem_ctrls0.perBankWrBursts::4                0                       # Per bank write bursts
system.mem_ctrls0.perBankWrBursts::5                0                       # Per bank write bursts
system.mem_ctrls0.perBankWrBursts::6                0                       # Per bank write bursts
system.mem_ctrls0.perBankWrBursts::7                0                       # Per bank write bursts
system.mem_ctrls0.perBankWrBursts::8                0                       # Per bank write bursts
system.mem_ctrls0.perBankWrBursts::9                0                       # Per bank write bursts
system.mem_ctrls0.perBankWrBursts::10               0                       # Per bank write bursts
system.mem_ctrls0.perBankWrBursts::11               0                       # Per bank write bursts
system.mem_ctrls0.perBankWrBursts::12               0                       # Per bank write bursts
system.mem_ctrls0.perBankWrBursts::13               0                       # Per bank write bursts
system.mem_ctrls0.perBankWrBursts::14               0                       # Per bank write bursts
system.mem_ctrls0.perBankWrBursts::15               0                       # Per bank write bursts
system.mem_ctrls0.numRdRetry                        0                       # Number of times read queue was full causing retry
system.mem_ctrls0.numWrRetry                        0                       # Number of times write queue was full causing retry
system.mem_ctrls0.totGap                 968121654588                       # Total gap between requests
system.mem_ctrls0.readPktSize::0                    0                       # Read request sizes (log2)
system.mem_ctrls0.readPktSize::1                    0                       # Read request sizes (log2)
system.mem_ctrls0.readPktSize::2                    0                       # Read request sizes (log2)
system.mem_ctrls0.readPktSize::3                    0                       # Read request sizes (log2)
system.mem_ctrls0.readPktSize::4                    0                       # Read request sizes (log2)
system.mem_ctrls0.readPktSize::5                    0                       # Read request sizes (log2)
system.mem_ctrls0.readPktSize::6                24407                       # Read request sizes (log2)
system.mem_ctrls0.writePktSize::0                   0                       # Write request sizes (log2)
system.mem_ctrls0.writePktSize::1                   0                       # Write request sizes (log2)
system.mem_ctrls0.writePktSize::2                   0                       # Write request sizes (log2)
system.mem_ctrls0.writePktSize::3                   0                       # Write request sizes (log2)
system.mem_ctrls0.writePktSize::4                   0                       # Write request sizes (log2)
system.mem_ctrls0.writePktSize::5                   0                       # Write request sizes (log2)
system.mem_ctrls0.writePktSize::6                   0                       # Write request sizes (log2)
system.mem_ctrls0.rdQLenPdf::0                  23345                       # What read queue length does an incoming req see
system.mem_ctrls0.rdQLenPdf::1                   1062                       # What read queue length does an incoming req see
system.mem_ctrls0.rdQLenPdf::2                      0                       # What read queue length does an incoming req see
system.mem_ctrls0.rdQLenPdf::3                      0                       # What read queue length does an incoming req see
system.mem_ctrls0.rdQLenPdf::4                      0                       # What read queue length does an incoming req see
system.mem_ctrls0.rdQLenPdf::5                      0                       # What read queue length does an incoming req see
system.mem_ctrls0.rdQLenPdf::6                      0                       # What read queue length does an incoming req see
system.mem_ctrls0.rdQLenPdf::7                      0                       # What read queue length does an incoming req see
system.mem_ctrls0.rdQLenPdf::8                      0                       # What read queue length does an incoming req see
system.mem_ctrls0.rdQLenPdf::9                      0                       # What read queue length does an incoming req see
system.mem_ctrls0.rdQLenPdf::10                     0                       # What read queue length does an incoming req see
system.mem_ctrls0.rdQLenPdf::11                     0                       # What read queue length does an incoming req see
system.mem_ctrls0.rdQLenPdf::12                     0                       # What read queue length does an incoming req see
system.mem_ctrls0.rdQLenPdf::13                     0                       # What read queue length does an incoming req see
system.mem_ctrls0.rdQLenPdf::14                     0                       # What read queue length does an incoming req see
system.mem_ctrls0.rdQLenPdf::15                     0                       # What read queue length does an incoming req see
system.mem_ctrls0.rdQLenPdf::16                     0                       # What read queue length does an incoming req see
system.mem_ctrls0.rdQLenPdf::17                     0                       # What read queue length does an incoming req see
system.mem_ctrls0.rdQLenPdf::18                     0                       # What read queue length does an incoming req see
system.mem_ctrls0.rdQLenPdf::19                     0                       # What read queue length does an incoming req see
system.mem_ctrls0.rdQLenPdf::20                     0                       # What read queue length does an incoming req see
system.mem_ctrls0.rdQLenPdf::21                     0                       # What read queue length does an incoming req see
system.mem_ctrls0.rdQLenPdf::22                     0                       # What read queue length does an incoming req see
system.mem_ctrls0.rdQLenPdf::23                     0                       # What read queue length does an incoming req see
system.mem_ctrls0.rdQLenPdf::24                     0                       # What read queue length does an incoming req see
system.mem_ctrls0.rdQLenPdf::25                     0                       # What read queue length does an incoming req see
system.mem_ctrls0.rdQLenPdf::26                     0                       # What read queue length does an incoming req see
system.mem_ctrls0.rdQLenPdf::27                     0                       # What read queue length does an incoming req see
system.mem_ctrls0.rdQLenPdf::28                     0                       # What read queue length does an incoming req see
system.mem_ctrls0.rdQLenPdf::29                     0                       # What read queue length does an incoming req see
system.mem_ctrls0.rdQLenPdf::30                     0                       # What read queue length does an incoming req see
system.mem_ctrls0.rdQLenPdf::31                     0                       # What read queue length does an incoming req see
system.mem_ctrls0.wrQLenPdf::0                      0                       # What write queue length does an incoming req see
system.mem_ctrls0.wrQLenPdf::1                      0                       # What write queue length does an incoming req see
system.mem_ctrls0.wrQLenPdf::2                      0                       # What write queue length does an incoming req see
system.mem_ctrls0.wrQLenPdf::3                      0                       # What write queue length does an incoming req see
system.mem_ctrls0.wrQLenPdf::4                      0                       # What write queue length does an incoming req see
system.mem_ctrls0.wrQLenPdf::5                      0                       # What write queue length does an incoming req see
system.mem_ctrls0.wrQLenPdf::6                      0                       # What write queue length does an incoming req see
system.mem_ctrls0.wrQLenPdf::7                      0                       # What write queue length does an incoming req see
system.mem_ctrls0.wrQLenPdf::8                      0                       # What write queue length does an incoming req see
system.mem_ctrls0.wrQLenPdf::9                      0                       # What write queue length does an incoming req see
system.mem_ctrls0.wrQLenPdf::10                     0                       # What write queue length does an incoming req see
system.mem_ctrls0.wrQLenPdf::11                     0                       # What write queue length does an incoming req see
system.mem_ctrls0.wrQLenPdf::12                     0                       # What write queue length does an incoming req see
system.mem_ctrls0.wrQLenPdf::13                     0                       # What write queue length does an incoming req see
system.mem_ctrls0.wrQLenPdf::14                     0                       # What write queue length does an incoming req see
system.mem_ctrls0.wrQLenPdf::15                     0                       # What write queue length does an incoming req see
system.mem_ctrls0.wrQLenPdf::16                     0                       # What write queue length does an incoming req see
system.mem_ctrls0.wrQLenPdf::17                     0                       # What write queue length does an incoming req see
system.mem_ctrls0.wrQLenPdf::18                     0                       # What write queue length does an incoming req see
system.mem_ctrls0.wrQLenPdf::19                     0                       # What write queue length does an incoming req see
system.mem_ctrls0.wrQLenPdf::20                     0                       # What write queue length does an incoming req see
system.mem_ctrls0.wrQLenPdf::21                     0                       # What write queue length does an incoming req see
system.mem_ctrls0.wrQLenPdf::22                     0                       # What write queue length does an incoming req see
system.mem_ctrls0.wrQLenPdf::23                     0                       # What write queue length does an incoming req see
system.mem_ctrls0.wrQLenPdf::24                     0                       # What write queue length does an incoming req see
system.mem_ctrls0.wrQLenPdf::25                     0                       # What write queue length does an incoming req see
system.mem_ctrls0.wrQLenPdf::26                     0                       # What write queue length does an incoming req see
system.mem_ctrls0.wrQLenPdf::27                     0                       # What write queue length does an incoming req see
system.mem_ctrls0.wrQLenPdf::28                     0                       # What write queue length does an incoming req see
system.mem_ctrls0.wrQLenPdf::29                     0                       # What write queue length does an incoming req see
system.mem_ctrls0.wrQLenPdf::30                     0                       # What write queue length does an incoming req see
system.mem_ctrls0.wrQLenPdf::31                     0                       # What write queue length does an incoming req see
system.mem_ctrls0.wrQLenPdf::32                     0                       # What write queue length does an incoming req see
system.mem_ctrls0.wrQLenPdf::33                     0                       # What write queue length does an incoming req see
system.mem_ctrls0.wrQLenPdf::34                     0                       # What write queue length does an incoming req see
system.mem_ctrls0.wrQLenPdf::35                     0                       # What write queue length does an incoming req see
system.mem_ctrls0.wrQLenPdf::36                     0                       # What write queue length does an incoming req see
system.mem_ctrls0.wrQLenPdf::37                     0                       # What write queue length does an incoming req see
system.mem_ctrls0.wrQLenPdf::38                     0                       # What write queue length does an incoming req see
system.mem_ctrls0.wrQLenPdf::39                     0                       # What write queue length does an incoming req see
system.mem_ctrls0.wrQLenPdf::40                     0                       # What write queue length does an incoming req see
system.mem_ctrls0.wrQLenPdf::41                     0                       # What write queue length does an incoming req see
system.mem_ctrls0.wrQLenPdf::42                     0                       # What write queue length does an incoming req see
system.mem_ctrls0.wrQLenPdf::43                     0                       # What write queue length does an incoming req see
system.mem_ctrls0.wrQLenPdf::44                     0                       # What write queue length does an incoming req see
system.mem_ctrls0.wrQLenPdf::45                     0                       # What write queue length does an incoming req see
system.mem_ctrls0.wrQLenPdf::46                     0                       # What write queue length does an incoming req see
system.mem_ctrls0.wrQLenPdf::47                     0                       # What write queue length does an incoming req see
system.mem_ctrls0.wrQLenPdf::48                     0                       # What write queue length does an incoming req see
system.mem_ctrls0.wrQLenPdf::49                     0                       # What write queue length does an incoming req see
system.mem_ctrls0.wrQLenPdf::50                     0                       # What write queue length does an incoming req see
system.mem_ctrls0.wrQLenPdf::51                     0                       # What write queue length does an incoming req see
system.mem_ctrls0.wrQLenPdf::52                     0                       # What write queue length does an incoming req see
system.mem_ctrls0.wrQLenPdf::53                     0                       # What write queue length does an incoming req see
system.mem_ctrls0.wrQLenPdf::54                     0                       # What write queue length does an incoming req see
system.mem_ctrls0.wrQLenPdf::55                     0                       # What write queue length does an incoming req see
system.mem_ctrls0.wrQLenPdf::56                     0                       # What write queue length does an incoming req see
system.mem_ctrls0.wrQLenPdf::57                     0                       # What write queue length does an incoming req see
system.mem_ctrls0.wrQLenPdf::58                     0                       # What write queue length does an incoming req see
system.mem_ctrls0.wrQLenPdf::59                     0                       # What write queue length does an incoming req see
system.mem_ctrls0.wrQLenPdf::60                     0                       # What write queue length does an incoming req see
system.mem_ctrls0.wrQLenPdf::61                     0                       # What write queue length does an incoming req see
system.mem_ctrls0.wrQLenPdf::62                     0                       # What write queue length does an incoming req see
system.mem_ctrls0.wrQLenPdf::63                     0                       # What write queue length does an incoming req see
system.mem_ctrls0.bytesPerActivate::samples         5859                       # Bytes accessed per row activation
system.mem_ctrls0.bytesPerActivate::mean   266.606588                       # Bytes accessed per row activation
system.mem_ctrls0.bytesPerActivate::gmean   194.896459                       # Bytes accessed per row activation
system.mem_ctrls0.bytesPerActivate::stdev   221.749929                       # Bytes accessed per row activation
system.mem_ctrls0.bytesPerActivate::0-127         1468     25.06%     25.06% # Bytes accessed per row activation
system.mem_ctrls0.bytesPerActivate::128-255         1311     22.38%     47.43% # Bytes accessed per row activation
system.mem_ctrls0.bytesPerActivate::256-383         1520     25.94%     73.37% # Bytes accessed per row activation
system.mem_ctrls0.bytesPerActivate::384-511         1097     18.72%     92.10% # Bytes accessed per row activation
system.mem_ctrls0.bytesPerActivate::512-639           51      0.87%     92.97% # Bytes accessed per row activation
system.mem_ctrls0.bytesPerActivate::640-767           38      0.65%     93.62% # Bytes accessed per row activation
system.mem_ctrls0.bytesPerActivate::768-895           45      0.77%     94.38% # Bytes accessed per row activation
system.mem_ctrls0.bytesPerActivate::896-1023          170      2.90%     97.29% # Bytes accessed per row activation
system.mem_ctrls0.bytesPerActivate::1024-1151          159      2.71%    100.00% # Bytes accessed per row activation
system.mem_ctrls0.bytesPerActivate::total         5859                       # Bytes accessed per row activation
system.mem_ctrls0.totQLat                  1065447695                       # Total ticks spent queuing
system.mem_ctrls0.totMemAccLat             1523078945                       # Total ticks spent from burst creation until serviced by the DRAM
system.mem_ctrls0.totBusLat                 122035000                       # Total ticks spent in databus transfers
system.mem_ctrls0.avgQLat                    43653.37                       # Average queueing delay per DRAM burst
system.mem_ctrls0.avgBusLat                   5000.00                       # Average bus latency per DRAM burst
system.mem_ctrls0.avgMemAccLat               62403.37                       # Average memory access latency per DRAM burst
system.mem_ctrls0.avgRdBW                        1.61                       # Average DRAM read bandwidth in MiByte/s
system.mem_ctrls0.avgWrBW                        0.00                       # Average achieved write bandwidth in MiByte/s
system.mem_ctrls0.avgRdBWSys                     1.61                       # Average system read bandwidth in MiByte/s
system.mem_ctrls0.avgWrBWSys                     0.00                       # Average system write bandwidth in MiByte/s
system.mem_ctrls0.peakBW                     12800.00                       # Theoretical peak bandwidth in MiByte/s
system.mem_ctrls0.busUtil                        0.01                       # Data bus utilization in percentage
system.mem_ctrls0.busUtilRead                    0.01                       # Data bus utilization in percentage for reads
system.mem_ctrls0.busUtilWrite                   0.00                       # Data bus utilization in percentage for writes
system.mem_ctrls0.avgRdQLen                      1.02                       # Average read queue length when enqueuing
system.mem_ctrls0.avgWrQLen                      0.00                       # Average write queue length when enqueuing
system.mem_ctrls0.readRowHits                   18548                       # Number of row buffer hits during reads
system.mem_ctrls0.writeRowHits                      0                       # Number of row buffer hits during writes
system.mem_ctrls0.readRowHitRate                75.99                       # Row buffer hit rate for reads
system.mem_ctrls0.writeRowHitRate                 nan                       # Row buffer hit rate for writes
system.mem_ctrls0.avgGap                  39665737.48                       # Average gap between requests
system.mem_ctrls0.pageHitRate                   75.99                       # Row buffer hit rate, read and write combined
system.mem_ctrls0_0.actEnergy                20141940                       # Energy for activate commands per rank (pJ)
system.mem_ctrls0_0.preEnergy                10705695                       # Energy for precharge commands per rank (pJ)
system.mem_ctrls0_0.readEnergy               83238120                       # Energy for read commands per rank (pJ)
system.mem_ctrls0_0.writeEnergy                     0                       # Energy for write commands per rank (pJ)
system.mem_ctrls0_0.refreshEnergy        1811958720.000000                       # Energy for refresh commands per rank (pJ)
system.mem_ctrls0_0.actBackEnergy           477195450                       # Energy for active background per rank (pJ)
system.mem_ctrls0_0.preBackEnergy           103837440                       # Energy for precharge background per rank (pJ)
system.mem_ctrls0_0.actPowerDownEnergy     5194834650                       # Energy for active power-down per rank (pJ)
system.mem_ctrls0_0.prePowerDownEnergy     2106576000                       # Energy for precharge power-down per rank (pJ)
system.mem_ctrls0_0.selfRefreshEnergy    228414300450                       # Energy for self refresh per rank (pJ)
system.mem_ctrls0_0.totalEnergy          238224139575                       # Total energy per rank (pJ)
system.mem_ctrls0_0.averagePower           245.995363                       # Core power per rank (mW)
system.mem_ctrls0_0.totalIdleTime        966817222343                       # Total Idle time Per DRAM Rank
system.mem_ctrls0_0.memoryStateTime::IDLE    203706577                       # Time in different power states
system.mem_ctrls0_0.memoryStateTime::REF    770548000                       # Time in different power states
system.mem_ctrls0_0.memoryStateTime::SREF 950211099555                       # Time in different power states
system.mem_ctrls0_0.memoryStateTime::PRE_PDN   5485873174                       # Time in different power states
system.mem_ctrls0_0.memoryStateTime::ACT    345560894                       # Time in different power states
system.mem_ctrls0_0.memoryStateTime::ACT_PDN  11392278355                       # Time in different power states
system.mem_ctrls0_1.actEnergy                21691320                       # Energy for activate commands per rank (pJ)
system.mem_ctrls0_1.preEnergy                11529210                       # Energy for precharge commands per rank (pJ)
system.mem_ctrls0_1.readEnergy               91027860                       # Energy for read commands per rank (pJ)
system.mem_ctrls0_1.writeEnergy                     0                       # Energy for write commands per rank (pJ)
system.mem_ctrls0_1.refreshEnergy        1818719760.000000                       # Energy for refresh commands per rank (pJ)
system.mem_ctrls0_1.actBackEnergy           498248400                       # Energy for active background per rank (pJ)
system.mem_ctrls0_1.preBackEnergy            96959520                       # Energy for precharge background per rank (pJ)
system.mem_ctrls0_1.actPowerDownEnergy     5396419140                       # Energy for active power-down per rank (pJ)
system.mem_ctrls0_1.prePowerDownEnergy     2051889120                       # Energy for precharge power-down per rank (pJ)
system.mem_ctrls0_1.selfRefreshEnergy    228316734420                       # Energy for self refresh per rank (pJ)
system.mem_ctrls0_1.totalEnergy          238303218750                       # Total energy per rank (pJ)
system.mem_ctrls0_1.averagePower           246.077022                       # Core power per rank (mW)
system.mem_ctrls0_1.totalIdleTime        965559052163                       # Total Idle time Per DRAM Rank
system.mem_ctrls0_1.memoryStateTime::IDLE    182117809                       # Time in different power states
system.mem_ctrls0_1.memoryStateTime::REF    773084000                       # Time in different power states
system.mem_ctrls0_1.memoryStateTime::SREF 949886192555                       # Time in different power states
system.mem_ctrls0_1.memoryStateTime::PRE_PDN   5343451842                       # Time in different power states
system.mem_ctrls0_1.memoryStateTime::ACT    390122737                       # Time in different power states
system.mem_ctrls0_1.memoryStateTime::ACT_PDN  11834097612                       # Time in different power states
system.mem_ctrls1.pwrStateResidencyTicks::UNDEFINED 267371039198457                       # Cumulative time (in ticks) in various power states
system.mem_ctrls1.bytes_read::cpu.inst             64                       # Number of bytes read from this memory
system.mem_ctrls1.bytes_read::switch_cpus.inst         8192                       # Number of bytes read from this memory
system.mem_ctrls1.bytes_read::switch_cpus.data       989760                       # Number of bytes read from this memory
system.mem_ctrls1.bytes_read::switch_cpus_1.inst         1088                       # Number of bytes read from this memory
system.mem_ctrls1.bytes_read::switch_cpus_1.data       563584                       # Number of bytes read from this memory
system.mem_ctrls1.bytes_read::total           1562688                       # Number of bytes read from this memory
system.mem_ctrls1.bytes_inst_read::cpu.inst           64                       # Number of instructions bytes read from this memory
system.mem_ctrls1.bytes_inst_read::switch_cpus.inst         8192                       # Number of instructions bytes read from this memory
system.mem_ctrls1.bytes_inst_read::switch_cpus_1.inst         1088                       # Number of instructions bytes read from this memory
system.mem_ctrls1.bytes_inst_read::total         9344                       # Number of instructions bytes read from this memory
system.mem_ctrls1.num_reads::cpu.inst               1                       # Number of read requests responded to by this memory
system.mem_ctrls1.num_reads::switch_cpus.inst          128                       # Number of read requests responded to by this memory
system.mem_ctrls1.num_reads::switch_cpus.data        15465                       # Number of read requests responded to by this memory
system.mem_ctrls1.num_reads::switch_cpus_1.inst           17                       # Number of read requests responded to by this memory
system.mem_ctrls1.num_reads::switch_cpus_1.data         8806                       # Number of read requests responded to by this memory
system.mem_ctrls1.num_reads::total              24417                       # Number of read requests responded to by this memory
system.mem_ctrls1.bw_read::cpu.inst                66                       # Total read bandwidth from this memory (bytes/s)
system.mem_ctrls1.bw_read::switch_cpus.inst         8459                       # Total read bandwidth from this memory (bytes/s)
system.mem_ctrls1.bw_read::switch_cpus.data      1022047                       # Total read bandwidth from this memory (bytes/s)
system.mem_ctrls1.bw_read::switch_cpus_1.inst         1123                       # Total read bandwidth from this memory (bytes/s)
system.mem_ctrls1.bw_read::switch_cpus_1.data       581969                       # Total read bandwidth from this memory (bytes/s)
system.mem_ctrls1.bw_read::total              1613665                       # Total read bandwidth from this memory (bytes/s)
system.mem_ctrls1.bw_inst_read::cpu.inst           66                       # Instruction read bandwidth from this memory (bytes/s)
system.mem_ctrls1.bw_inst_read::switch_cpus.inst         8459                       # Instruction read bandwidth from this memory (bytes/s)
system.mem_ctrls1.bw_inst_read::switch_cpus_1.inst         1123                       # Instruction read bandwidth from this memory (bytes/s)
system.mem_ctrls1.bw_inst_read::total            9649                       # Instruction read bandwidth from this memory (bytes/s)
system.mem_ctrls1.bw_total::cpu.inst               66                       # Total bandwidth to/from this memory (bytes/s)
system.mem_ctrls1.bw_total::switch_cpus.inst         8459                       # Total bandwidth to/from this memory (bytes/s)
system.mem_ctrls1.bw_total::switch_cpus.data      1022047                       # Total bandwidth to/from this memory (bytes/s)
system.mem_ctrls1.bw_total::switch_cpus_1.inst         1123                       # Total bandwidth to/from this memory (bytes/s)
system.mem_ctrls1.bw_total::switch_cpus_1.data       581969                       # Total bandwidth to/from this memory (bytes/s)
system.mem_ctrls1.bw_total::total             1613665                       # Total bandwidth to/from this memory (bytes/s)
system.mem_ctrls1.readReqs                      24417                       # Number of read requests accepted
system.mem_ctrls1.writeReqs                         0                       # Number of write requests accepted
system.mem_ctrls1.readBursts                    24417                       # Number of DRAM read bursts, including those serviced by the write queue
system.mem_ctrls1.writeBursts                       0                       # Number of DRAM write bursts, including those merged in the write queue
system.mem_ctrls1.bytesReadDRAM               1562688                       # Total number of bytes read from DRAM
system.mem_ctrls1.bytesReadWrQ                      0                       # Total number of bytes read from write queue
system.mem_ctrls1.bytesWritten                      0                       # Total number of bytes written to DRAM
system.mem_ctrls1.bytesReadSys                1562688                       # Total read bytes from the system interface side
system.mem_ctrls1.bytesWrittenSys                   0                       # Total written bytes from the system interface side
system.mem_ctrls1.servicedByWrQ                     0                       # Number of DRAM read bursts serviced by the write queue
system.mem_ctrls1.mergedWrBursts                    0                       # Number of DRAM write bursts merged with an existing one
system.mem_ctrls1.neitherReadNorWriteReqs            0                       # Number of requests that are neither read nor write
system.mem_ctrls1.perBankRdBursts::0             1536                       # Per bank write bursts
system.mem_ctrls1.perBankRdBursts::1             1519                       # Per bank write bursts
system.mem_ctrls1.perBankRdBursts::2             1410                       # Per bank write bursts
system.mem_ctrls1.perBankRdBursts::3             1414                       # Per bank write bursts
system.mem_ctrls1.perBankRdBursts::4             1408                       # Per bank write bursts
system.mem_ctrls1.perBankRdBursts::5             1408                       # Per bank write bursts
system.mem_ctrls1.perBankRdBursts::6             1440                       # Per bank write bursts
system.mem_ctrls1.perBankRdBursts::7             1529                       # Per bank write bursts
system.mem_ctrls1.perBankRdBursts::8             1591                       # Per bank write bursts
system.mem_ctrls1.perBankRdBursts::9             1655                       # Per bank write bursts
system.mem_ctrls1.perBankRdBursts::10            1578                       # Per bank write bursts
system.mem_ctrls1.perBankRdBursts::11            1550                       # Per bank write bursts
system.mem_ctrls1.perBankRdBursts::12            1614                       # Per bank write bursts
system.mem_ctrls1.perBankRdBursts::13            1543                       # Per bank write bursts
system.mem_ctrls1.perBankRdBursts::14            1664                       # Per bank write bursts
system.mem_ctrls1.perBankRdBursts::15            1558                       # Per bank write bursts
system.mem_ctrls1.perBankWrBursts::0                0                       # Per bank write bursts
system.mem_ctrls1.perBankWrBursts::1                0                       # Per bank write bursts
system.mem_ctrls1.perBankWrBursts::2                0                       # Per bank write bursts
system.mem_ctrls1.perBankWrBursts::3                0                       # Per bank write bursts
system.mem_ctrls1.perBankWrBursts::4                0                       # Per bank write bursts
system.mem_ctrls1.perBankWrBursts::5                0                       # Per bank write bursts
system.mem_ctrls1.perBankWrBursts::6                0                       # Per bank write bursts
system.mem_ctrls1.perBankWrBursts::7                0                       # Per bank write bursts
system.mem_ctrls1.perBankWrBursts::8                0                       # Per bank write bursts
system.mem_ctrls1.perBankWrBursts::9                0                       # Per bank write bursts
system.mem_ctrls1.perBankWrBursts::10               0                       # Per bank write bursts
system.mem_ctrls1.perBankWrBursts::11               0                       # Per bank write bursts
system.mem_ctrls1.perBankWrBursts::12               0                       # Per bank write bursts
system.mem_ctrls1.perBankWrBursts::13               0                       # Per bank write bursts
system.mem_ctrls1.perBankWrBursts::14               0                       # Per bank write bursts
system.mem_ctrls1.perBankWrBursts::15               0                       # Per bank write bursts
system.mem_ctrls1.numRdRetry                        0                       # Number of times read queue was full causing retry
system.mem_ctrls1.numWrRetry                        0                       # Number of times write queue was full causing retry
system.mem_ctrls1.totGap                 968121449460                       # Total gap between requests
system.mem_ctrls1.readPktSize::0                    0                       # Read request sizes (log2)
system.mem_ctrls1.readPktSize::1                    0                       # Read request sizes (log2)
system.mem_ctrls1.readPktSize::2                    0                       # Read request sizes (log2)
system.mem_ctrls1.readPktSize::3                    0                       # Read request sizes (log2)
system.mem_ctrls1.readPktSize::4                    0                       # Read request sizes (log2)
system.mem_ctrls1.readPktSize::5                    0                       # Read request sizes (log2)
system.mem_ctrls1.readPktSize::6                24417                       # Read request sizes (log2)
system.mem_ctrls1.writePktSize::0                   0                       # Write request sizes (log2)
system.mem_ctrls1.writePktSize::1                   0                       # Write request sizes (log2)
system.mem_ctrls1.writePktSize::2                   0                       # Write request sizes (log2)
system.mem_ctrls1.writePktSize::3                   0                       # Write request sizes (log2)
system.mem_ctrls1.writePktSize::4                   0                       # Write request sizes (log2)
system.mem_ctrls1.writePktSize::5                   0                       # Write request sizes (log2)
system.mem_ctrls1.writePktSize::6                   0                       # Write request sizes (log2)
system.mem_ctrls1.rdQLenPdf::0                  23393                       # What read queue length does an incoming req see
system.mem_ctrls1.rdQLenPdf::1                   1024                       # What read queue length does an incoming req see
system.mem_ctrls1.rdQLenPdf::2                      0                       # What read queue length does an incoming req see
system.mem_ctrls1.rdQLenPdf::3                      0                       # What read queue length does an incoming req see
system.mem_ctrls1.rdQLenPdf::4                      0                       # What read queue length does an incoming req see
system.mem_ctrls1.rdQLenPdf::5                      0                       # What read queue length does an incoming req see
system.mem_ctrls1.rdQLenPdf::6                      0                       # What read queue length does an incoming req see
system.mem_ctrls1.rdQLenPdf::7                      0                       # What read queue length does an incoming req see
system.mem_ctrls1.rdQLenPdf::8                      0                       # What read queue length does an incoming req see
system.mem_ctrls1.rdQLenPdf::9                      0                       # What read queue length does an incoming req see
system.mem_ctrls1.rdQLenPdf::10                     0                       # What read queue length does an incoming req see
system.mem_ctrls1.rdQLenPdf::11                     0                       # What read queue length does an incoming req see
system.mem_ctrls1.rdQLenPdf::12                     0                       # What read queue length does an incoming req see
system.mem_ctrls1.rdQLenPdf::13                     0                       # What read queue length does an incoming req see
system.mem_ctrls1.rdQLenPdf::14                     0                       # What read queue length does an incoming req see
system.mem_ctrls1.rdQLenPdf::15                     0                       # What read queue length does an incoming req see
system.mem_ctrls1.rdQLenPdf::16                     0                       # What read queue length does an incoming req see
system.mem_ctrls1.rdQLenPdf::17                     0                       # What read queue length does an incoming req see
system.mem_ctrls1.rdQLenPdf::18                     0                       # What read queue length does an incoming req see
system.mem_ctrls1.rdQLenPdf::19                     0                       # What read queue length does an incoming req see
system.mem_ctrls1.rdQLenPdf::20                     0                       # What read queue length does an incoming req see
system.mem_ctrls1.rdQLenPdf::21                     0                       # What read queue length does an incoming req see
system.mem_ctrls1.rdQLenPdf::22                     0                       # What read queue length does an incoming req see
system.mem_ctrls1.rdQLenPdf::23                     0                       # What read queue length does an incoming req see
system.mem_ctrls1.rdQLenPdf::24                     0                       # What read queue length does an incoming req see
system.mem_ctrls1.rdQLenPdf::25                     0                       # What read queue length does an incoming req see
system.mem_ctrls1.rdQLenPdf::26                     0                       # What read queue length does an incoming req see
system.mem_ctrls1.rdQLenPdf::27                     0                       # What read queue length does an incoming req see
system.mem_ctrls1.rdQLenPdf::28                     0                       # What read queue length does an incoming req see
system.mem_ctrls1.rdQLenPdf::29                     0                       # What read queue length does an incoming req see
system.mem_ctrls1.rdQLenPdf::30                     0                       # What read queue length does an incoming req see
system.mem_ctrls1.rdQLenPdf::31                     0                       # What read queue length does an incoming req see
system.mem_ctrls1.wrQLenPdf::0                      0                       # What write queue length does an incoming req see
system.mem_ctrls1.wrQLenPdf::1                      0                       # What write queue length does an incoming req see
system.mem_ctrls1.wrQLenPdf::2                      0                       # What write queue length does an incoming req see
system.mem_ctrls1.wrQLenPdf::3                      0                       # What write queue length does an incoming req see
system.mem_ctrls1.wrQLenPdf::4                      0                       # What write queue length does an incoming req see
system.mem_ctrls1.wrQLenPdf::5                      0                       # What write queue length does an incoming req see
system.mem_ctrls1.wrQLenPdf::6                      0                       # What write queue length does an incoming req see
system.mem_ctrls1.wrQLenPdf::7                      0                       # What write queue length does an incoming req see
system.mem_ctrls1.wrQLenPdf::8                      0                       # What write queue length does an incoming req see
system.mem_ctrls1.wrQLenPdf::9                      0                       # What write queue length does an incoming req see
system.mem_ctrls1.wrQLenPdf::10                     0                       # What write queue length does an incoming req see
system.mem_ctrls1.wrQLenPdf::11                     0                       # What write queue length does an incoming req see
system.mem_ctrls1.wrQLenPdf::12                     0                       # What write queue length does an incoming req see
system.mem_ctrls1.wrQLenPdf::13                     0                       # What write queue length does an incoming req see
system.mem_ctrls1.wrQLenPdf::14                     0                       # What write queue length does an incoming req see
system.mem_ctrls1.wrQLenPdf::15                     0                       # What write queue length does an incoming req see
system.mem_ctrls1.wrQLenPdf::16                     0                       # What write queue length does an incoming req see
system.mem_ctrls1.wrQLenPdf::17                     0                       # What write queue length does an incoming req see
system.mem_ctrls1.wrQLenPdf::18                     0                       # What write queue length does an incoming req see
system.mem_ctrls1.wrQLenPdf::19                     0                       # What write queue length does an incoming req see
system.mem_ctrls1.wrQLenPdf::20                     0                       # What write queue length does an incoming req see
system.mem_ctrls1.wrQLenPdf::21                     0                       # What write queue length does an incoming req see
system.mem_ctrls1.wrQLenPdf::22                     0                       # What write queue length does an incoming req see
system.mem_ctrls1.wrQLenPdf::23                     0                       # What write queue length does an incoming req see
system.mem_ctrls1.wrQLenPdf::24                     0                       # What write queue length does an incoming req see
system.mem_ctrls1.wrQLenPdf::25                     0                       # What write queue length does an incoming req see
system.mem_ctrls1.wrQLenPdf::26                     0                       # What write queue length does an incoming req see
system.mem_ctrls1.wrQLenPdf::27                     0                       # What write queue length does an incoming req see
system.mem_ctrls1.wrQLenPdf::28                     0                       # What write queue length does an incoming req see
system.mem_ctrls1.wrQLenPdf::29                     0                       # What write queue length does an incoming req see
system.mem_ctrls1.wrQLenPdf::30                     0                       # What write queue length does an incoming req see
system.mem_ctrls1.wrQLenPdf::31                     0                       # What write queue length does an incoming req see
system.mem_ctrls1.wrQLenPdf::32                     0                       # What write queue length does an incoming req see
system.mem_ctrls1.wrQLenPdf::33                     0                       # What write queue length does an incoming req see
system.mem_ctrls1.wrQLenPdf::34                     0                       # What write queue length does an incoming req see
system.mem_ctrls1.wrQLenPdf::35                     0                       # What write queue length does an incoming req see
system.mem_ctrls1.wrQLenPdf::36                     0                       # What write queue length does an incoming req see
system.mem_ctrls1.wrQLenPdf::37                     0                       # What write queue length does an incoming req see
system.mem_ctrls1.wrQLenPdf::38                     0                       # What write queue length does an incoming req see
system.mem_ctrls1.wrQLenPdf::39                     0                       # What write queue length does an incoming req see
system.mem_ctrls1.wrQLenPdf::40                     0                       # What write queue length does an incoming req see
system.mem_ctrls1.wrQLenPdf::41                     0                       # What write queue length does an incoming req see
system.mem_ctrls1.wrQLenPdf::42                     0                       # What write queue length does an incoming req see
system.mem_ctrls1.wrQLenPdf::43                     0                       # What write queue length does an incoming req see
system.mem_ctrls1.wrQLenPdf::44                     0                       # What write queue length does an incoming req see
system.mem_ctrls1.wrQLenPdf::45                     0                       # What write queue length does an incoming req see
system.mem_ctrls1.wrQLenPdf::46                     0                       # What write queue length does an incoming req see
system.mem_ctrls1.wrQLenPdf::47                     0                       # What write queue length does an incoming req see
system.mem_ctrls1.wrQLenPdf::48                     0                       # What write queue length does an incoming req see
system.mem_ctrls1.wrQLenPdf::49                     0                       # What write queue length does an incoming req see
system.mem_ctrls1.wrQLenPdf::50                     0                       # What write queue length does an incoming req see
system.mem_ctrls1.wrQLenPdf::51                     0                       # What write queue length does an incoming req see
system.mem_ctrls1.wrQLenPdf::52                     0                       # What write queue length does an incoming req see
system.mem_ctrls1.wrQLenPdf::53                     0                       # What write queue length does an incoming req see
system.mem_ctrls1.wrQLenPdf::54                     0                       # What write queue length does an incoming req see
system.mem_ctrls1.wrQLenPdf::55                     0                       # What write queue length does an incoming req see
system.mem_ctrls1.wrQLenPdf::56                     0                       # What write queue length does an incoming req see
system.mem_ctrls1.wrQLenPdf::57                     0                       # What write queue length does an incoming req see
system.mem_ctrls1.wrQLenPdf::58                     0                       # What write queue length does an incoming req see
system.mem_ctrls1.wrQLenPdf::59                     0                       # What write queue length does an incoming req see
system.mem_ctrls1.wrQLenPdf::60                     0                       # What write queue length does an incoming req see
system.mem_ctrls1.wrQLenPdf::61                     0                       # What write queue length does an incoming req see
system.mem_ctrls1.wrQLenPdf::62                     0                       # What write queue length does an incoming req see
system.mem_ctrls1.wrQLenPdf::63                     0                       # What write queue length does an incoming req see
system.mem_ctrls1.bytesPerActivate::samples         5855                       # Bytes accessed per row activation
system.mem_ctrls1.bytesPerActivate::mean   266.898036                       # Bytes accessed per row activation
system.mem_ctrls1.bytesPerActivate::gmean   196.066718                       # Bytes accessed per row activation
system.mem_ctrls1.bytesPerActivate::stdev   221.103995                       # Bytes accessed per row activation
system.mem_ctrls1.bytesPerActivate::0-127         1410     24.08%     24.08% # Bytes accessed per row activation
system.mem_ctrls1.bytesPerActivate::128-255         1362     23.26%     47.34% # Bytes accessed per row activation
system.mem_ctrls1.bytesPerActivate::256-383         1552     26.51%     73.85% # Bytes accessed per row activation
system.mem_ctrls1.bytesPerActivate::384-511         1058     18.07%     91.92% # Bytes accessed per row activation
system.mem_ctrls1.bytesPerActivate::512-639           57      0.97%     92.89% # Bytes accessed per row activation
system.mem_ctrls1.bytesPerActivate::640-767           43      0.73%     93.63% # Bytes accessed per row activation
system.mem_ctrls1.bytesPerActivate::768-895           47      0.80%     94.43% # Bytes accessed per row activation
system.mem_ctrls1.bytesPerActivate::896-1023          166      2.84%     97.27% # Bytes accessed per row activation
system.mem_ctrls1.bytesPerActivate::1024-1151          160      2.73%    100.00% # Bytes accessed per row activation
system.mem_ctrls1.bytesPerActivate::total         5855                       # Bytes accessed per row activation
system.mem_ctrls1.totQLat                  1074784678                       # Total ticks spent queuing
system.mem_ctrls1.totMemAccLat             1532603428                       # Total ticks spent from burst creation until serviced by the DRAM
system.mem_ctrls1.totBusLat                 122085000                       # Total ticks spent in databus transfers
system.mem_ctrls1.avgQLat                    44017.88                       # Average queueing delay per DRAM burst
system.mem_ctrls1.avgBusLat                   5000.00                       # Average bus latency per DRAM burst
system.mem_ctrls1.avgMemAccLat               62767.88                       # Average memory access latency per DRAM burst
system.mem_ctrls1.avgRdBW                        1.61                       # Average DRAM read bandwidth in MiByte/s
system.mem_ctrls1.avgWrBW                        0.00                       # Average achieved write bandwidth in MiByte/s
system.mem_ctrls1.avgRdBWSys                     1.61                       # Average system read bandwidth in MiByte/s
system.mem_ctrls1.avgWrBWSys                     0.00                       # Average system write bandwidth in MiByte/s
system.mem_ctrls1.peakBW                     12800.00                       # Theoretical peak bandwidth in MiByte/s
system.mem_ctrls1.busUtil                        0.01                       # Data bus utilization in percentage
system.mem_ctrls1.busUtilRead                    0.01                       # Data bus utilization in percentage for reads
system.mem_ctrls1.busUtilWrite                   0.00                       # Data bus utilization in percentage for writes
system.mem_ctrls1.avgRdQLen                      1.03                       # Average read queue length when enqueuing
system.mem_ctrls1.avgWrQLen                      0.00                       # Average write queue length when enqueuing
system.mem_ctrls1.readRowHits                   18562                       # Number of row buffer hits during reads
system.mem_ctrls1.writeRowHits                      0                       # Number of row buffer hits during writes
system.mem_ctrls1.readRowHitRate                76.02                       # Row buffer hit rate for reads
system.mem_ctrls1.writeRowHitRate                 nan                       # Row buffer hit rate for writes
system.mem_ctrls1.avgGap                  39649483.94                       # Average gap between requests
system.mem_ctrls1.pageHitRate                   76.02                       # Row buffer hit rate, read and write combined
system.mem_ctrls1_0.actEnergy                20149080                       # Energy for activate commands per rank (pJ)
system.mem_ctrls1_0.preEnergy                10709490                       # Energy for precharge commands per rank (pJ)
system.mem_ctrls1_0.readEnergy               83280960                       # Energy for read commands per rank (pJ)
system.mem_ctrls1_0.writeEnergy                     0                       # Energy for write commands per rank (pJ)
system.mem_ctrls1_0.refreshEnergy        1810114800.000000                       # Energy for refresh commands per rank (pJ)
system.mem_ctrls1_0.actBackEnergy           477224520                       # Energy for active background per rank (pJ)
system.mem_ctrls1_0.preBackEnergy           105247680                       # Energy for precharge background per rank (pJ)
system.mem_ctrls1_0.actPowerDownEnergy     5174298120                       # Energy for active power-down per rank (pJ)
system.mem_ctrls1_0.prePowerDownEnergy     2102501760                       # Energy for precharge power-down per rank (pJ)
system.mem_ctrls1_0.selfRefreshEnergy    228428792580                       # Energy for self refresh per rank (pJ)
system.mem_ctrls1_0.totalEnergy          238213475580                       # Total energy per rank (pJ)
system.mem_ctrls1_0.averagePower           245.984351                       # Core power per rank (mW)
system.mem_ctrls1_0.totalIdleTime        966813985403                       # Total Idle time Per DRAM Rank
system.mem_ctrls1_0.memoryStateTime::IDLE    206948750                       # Time in different power states
system.mem_ctrls1_0.memoryStateTime::REF    769780000                       # Time in different power states
system.mem_ctrls1_0.memoryStateTime::SREF 950263459305                       # Time in different power states
system.mem_ctrls1_0.memoryStateTime::PRE_PDN   5475269686                       # Time in different power states
system.mem_ctrls1_0.memoryStateTime::ACT    346372945                       # Time in different power states
system.mem_ctrls1_0.memoryStateTime::ACT_PDN  11347235869                       # Time in different power states
system.mem_ctrls1_1.actEnergy                21655620                       # Energy for activate commands per rank (pJ)
system.mem_ctrls1_1.preEnergy                11510235                       # Energy for precharge commands per rank (pJ)
system.mem_ctrls1_1.readEnergy               91056420                       # Energy for read commands per rank (pJ)
system.mem_ctrls1_1.writeEnergy                     0                       # Energy for write commands per rank (pJ)
system.mem_ctrls1_1.refreshEnergy        1816875840.000000                       # Energy for refresh commands per rank (pJ)
system.mem_ctrls1_1.actBackEnergy           498215910                       # Energy for active background per rank (pJ)
system.mem_ctrls1_1.preBackEnergy            97348320                       # Energy for precharge background per rank (pJ)
system.mem_ctrls1_1.actPowerDownEnergy     5385018000                       # Energy for active power-down per rank (pJ)
system.mem_ctrls1_1.prePowerDownEnergy     2043809760                       # Energy for precharge power-down per rank (pJ)
system.mem_ctrls1_1.selfRefreshEnergy    228329215440                       # Energy for self refresh per rank (pJ)
system.mem_ctrls1_1.totalEnergy          238294706985                       # Total energy per rank (pJ)
system.mem_ctrls1_1.averagePower           246.068232                       # Core power per rank (mW)
system.mem_ctrls1_1.totalIdleTime        965559002693                       # Total Idle time Per DRAM Rank
system.mem_ctrls1_1.memoryStateTime::IDLE    183247756                       # Time in different power states
system.mem_ctrls1_1.memoryStateTime::REF    772322000                       # Time in different power states
system.mem_ctrls1_1.memoryStateTime::SREF 949931302055                       # Time in different power states
system.mem_ctrls1_1.memoryStateTime::PRE_PDN   5322386862                       # Time in different power states
system.mem_ctrls1_1.memoryStateTime::ACT    390686710                       # Time in different power states
system.mem_ctrls1_1.memoryStateTime::ACT_PDN  11809121172                       # Time in different power states
system.pwrStateResidencyTicks::UNDEFINED 267371039198457                       # Cumulative time (in ticks) in various power states
system.cpu.branchPred.lookups                       2                       # Number of BP lookups
system.cpu.branchPred.condPredicted                 2                       # Number of conditional branches predicted
system.cpu.branchPred.condIncorrect                 1                       # Number of conditional branches incorrect
system.cpu.branchPred.BTBLookups                    0                       # Number of BTB lookups
system.cpu.branchPred.BTBHits                       0                       # Number of BTB hits
system.cpu.branchPred.BTBCorrect                    0                       # Number of correct BTB predictions (this stat may not work properly.
system.cpu.branchPred.BTBHitPct                   nan                       # BTB Hit Percentage
system.cpu.branchPred.usedRAS                       0                       # Number of times the RAS was used to get a target.
system.cpu.branchPred.RASInCorrect                  0                       # Number of incorrect RAS predictions.
system.cpu.branchPred.indirectLookups               0                       # Number of indirect predictor lookups.
system.cpu.branchPred.indirectHits                  0                       # Number of indirect target hits.
system.cpu.branchPred.indirectMisses                0                       # Number of indirect misses.
system.cpu.branchPredindirectMispredicted            0                       # Number of mispredicted indirect branches.
system.cpu_voltage_domain.voltage                   1                       # Voltage in Volts
system.cpu_clk_domain.clock                       333                       # Clock period in ticks
system.cpu.dtb.fetch_hits                           0                       # ITB hits
system.cpu.dtb.fetch_misses                         0                       # ITB misses
system.cpu.dtb.fetch_acv                            0                       # ITB acv
system.cpu.dtb.fetch_accesses                       0                       # ITB accesses
system.cpu.dtb.read_hits                            1                       # DTB read hits
system.cpu.dtb.read_misses                          0                       # DTB read misses
system.cpu.dtb.read_acv                             0                       # DTB read access violations
system.cpu.dtb.read_accesses                        1                       # DTB read accesses
system.cpu.dtb.write_hits                           0                       # DTB write hits
system.cpu.dtb.write_misses                         0                       # DTB write misses
system.cpu.dtb.write_acv                            0                       # DTB write access violations
system.cpu.dtb.write_accesses                       0                       # DTB write accesses
system.cpu.dtb.data_hits                            1                       # DTB hits
system.cpu.dtb.data_misses                          0                       # DTB misses
system.cpu.dtb.data_acv                             0                       # DTB access violations
system.cpu.dtb.data_accesses                        1                       # DTB accesses
system.cpu.itb.fetch_hits                           4                       # ITB hits
system.cpu.itb.fetch_misses                         0                       # ITB misses
system.cpu.itb.fetch_acv                            0                       # ITB acv
system.cpu.itb.fetch_accesses                       4                       # ITB accesses
system.cpu.itb.read_hits                            0                       # DTB read hits
system.cpu.itb.read_misses                          0                       # DTB read misses
system.cpu.itb.read_acv                             0                       # DTB read access violations
system.cpu.itb.read_accesses                        0                       # DTB read accesses
system.cpu.itb.write_hits                           0                       # DTB write hits
system.cpu.itb.write_misses                         0                       # DTB write misses
system.cpu.itb.write_acv                            0                       # DTB write access violations
system.cpu.itb.write_accesses                       0                       # DTB write accesses
system.cpu.itb.data_hits                            0                       # DTB hits
system.cpu.itb.data_misses                          0                       # DTB misses
system.cpu.itb.data_acv                             0                       # DTB access violations
system.cpu.itb.data_accesses                        0                       # DTB accesses
system.cpu.workload.num_syscalls                    0                       # Number of system calls
system.cpu.pwrStateResidencyTicks::ON    968409066555                       # Cumulative time (in ticks) in various power states
system.cpu.numCycles                              495                       # number of cpu cycles simulated
system.cpu.numWorkItemsStarted                      0                       # number of work items this cpu started
system.cpu.numWorkItemsCompleted                    0                       # number of work items this cpu completed
system.cpu.fetch.icacheStallCycles                 19                       # Number of cycles fetch is stalled on an Icache miss
system.cpu.fetch.Insts                             16                       # Number of instructions fetch has processed
system.cpu.fetch.Branches                           2                       # Number of branches that fetch encountered
system.cpu.fetch.Cycles                             2                       # Number of cycles fetch has run and was not squashing or blocked
system.cpu.fetch.SquashCycles                       5                       # Number of cycles fetch has spent squashing
system.cpu.fetch.PendingDrainCycles                 6                       # Number of cycles fetch has spent waiting on pipes to drain
system.cpu.fetch.CacheLines                         4                       # Number of cache lines fetched
system.cpu.fetch.IcacheSquashes                     3                       # Number of outstanding Icache misses that were squashed
system.cpu.fetch.rateDist::samples                 29                       # Number of instructions fetched each cycle (Total)
system.cpu.fetch.rateDist::mean              0.551724                       # Number of instructions fetched each cycle (Total)
system.cpu.fetch.rateDist::stdev             2.063046                       # Number of instructions fetched each cycle (Total)
system.cpu.fetch.rateDist::underflows               0      0.00%      0.00% # Number of instructions fetched each cycle (Total)
system.cpu.fetch.rateDist::0                       27     93.10%     93.10% # Number of instructions fetched each cycle (Total)
system.cpu.fetch.rateDist::1                        0      0.00%     93.10% # Number of instructions fetched each cycle (Total)
system.cpu.fetch.rateDist::2                        0      0.00%     93.10% # Number of instructions fetched each cycle (Total)
system.cpu.fetch.rateDist::3                        0      0.00%     93.10% # Number of instructions fetched each cycle (Total)
system.cpu.fetch.rateDist::4                        0      0.00%     93.10% # Number of instructions fetched each cycle (Total)
system.cpu.fetch.rateDist::5                        0      0.00%     93.10% # Number of instructions fetched each cycle (Total)
system.cpu.fetch.rateDist::6                        0      0.00%     93.10% # Number of instructions fetched each cycle (Total)
system.cpu.fetch.rateDist::7                        0      0.00%     93.10% # Number of instructions fetched each cycle (Total)
system.cpu.fetch.rateDist::8                        2      6.90%    100.00% # Number of instructions fetched each cycle (Total)
system.cpu.fetch.rateDist::overflows                0      0.00%    100.00% # Number of instructions fetched each cycle (Total)
system.cpu.fetch.rateDist::min_value                0                       # Number of instructions fetched each cycle (Total)
system.cpu.fetch.rateDist::max_value                8                       # Number of instructions fetched each cycle (Total)
system.cpu.fetch.rateDist::total                   29                       # Number of instructions fetched each cycle (Total)
system.cpu.fetch.branchRate                  0.004040                       # Number of branch fetches per cycle
system.cpu.fetch.rate                        0.032323                       # Number of inst fetches per cycle
system.cpu.decode.IdleCycles                       23                       # Number of cycles decode is idle
system.cpu.decode.BlockedCycles                     1                       # Number of cycles decode is blocked
system.cpu.decode.RunCycles                         2                       # Number of cycles decode is running
system.cpu.decode.SquashCycles                      3                       # Number of cycles decode is squashing
system.cpu.decode.DecodedInsts                     16                       # Number of instructions handled by decode
system.cpu.rename.SquashCycles                      3                       # Number of cycles rename is squashing
system.cpu.rename.IdleCycles                       22                       # Number of cycles rename is idle
system.cpu.rename.BlockCycles                       2                       # Number of cycles rename is blocking
system.cpu.rename.serializeStallCycles              0                       # count of cycles rename stalled for serializing inst
system.cpu.rename.RunCycles                         2                       # Number of cycles rename is running
system.cpu.rename.RenamedInsts                     16                       # Number of instructions processed by rename
system.cpu.rename.RenamedOperands                  13                       # Number of destination operands rename has renamed
system.cpu.rename.RenameLookups                    26                       # Number of register rename lookups that rename has made
system.cpu.rename.int_rename_lookups               12                       # Number of integer rename lookups
system.cpu.rename.fp_rename_lookups                14                       # Number of floating rename lookups
system.cpu.rename.CommittedMaps                     3                       # Number of HB maps that are committed
system.cpu.rename.UndoneMaps                       10                       # Number of HB maps that are undone due to squashing
system.cpu.rename.serializingInsts                  0                       # count of serializing insts renamed
system.cpu.rename.tempSerializingInsts              0                       # count of temporary serializing insts renamed
system.cpu.rename.skidInsts                         0                       # count of insts added to the skid buffer
system.cpu.memDep0.insertedLoads                    1                       # Number of loads inserted to the mem dependence unit.
system.cpu.memDep0.insertedStores                   1                       # Number of stores inserted to the mem dependence unit.
system.cpu.memDep0.conflictingLoads                 0                       # Number of conflicting loads.
system.cpu.memDep0.conflictingStores                0                       # Number of conflicting stores.
system.cpu.iq.iqInstsAdded                         16                       # Number of instructions added to the IQ (excludes non-spec)
system.cpu.iq.iqInstsIssued                         8                       # Number of instructions issued
system.cpu.iq.iqSquashedInstsExamined              13                       # Number of squashed instructions iterated over during squash; mainly for profiling
system.cpu.iq.iqSquashedOperandsExamined           16                       # Number of squashed operands that are examined and possibly removed from graph
system.cpu.iq.issued_per_cycle::samples            29                       # Number of insts issued each cycle
system.cpu.iq.issued_per_cycle::mean         0.275862                       # Number of insts issued each cycle
system.cpu.iq.issued_per_cycle::stdev        0.921821                       # Number of insts issued each cycle
system.cpu.iq.issued_per_cycle::underflows            0      0.00%      0.00% # Number of insts issued each cycle
system.cpu.iq.issued_per_cycle::0                  26     89.66%     89.66% # Number of insts issued each cycle
system.cpu.iq.issued_per_cycle::1                   1      3.45%     93.10% # Number of insts issued each cycle
system.cpu.iq.issued_per_cycle::2                   0      0.00%     93.10% # Number of insts issued each cycle
system.cpu.iq.issued_per_cycle::3                   1      3.45%     96.55% # Number of insts issued each cycle
system.cpu.iq.issued_per_cycle::4                   1      3.45%    100.00% # Number of insts issued each cycle
system.cpu.iq.issued_per_cycle::5                   0      0.00%    100.00% # Number of insts issued each cycle
system.cpu.iq.issued_per_cycle::6                   0      0.00%    100.00% # Number of insts issued each cycle
system.cpu.iq.issued_per_cycle::7                   0      0.00%    100.00% # Number of insts issued each cycle
system.cpu.iq.issued_per_cycle::8                   0      0.00%    100.00% # Number of insts issued each cycle
system.cpu.iq.issued_per_cycle::overflows            0      0.00%    100.00% # Number of insts issued each cycle
system.cpu.iq.issued_per_cycle::min_value            0                       # Number of insts issued each cycle
system.cpu.iq.issued_per_cycle::max_value            4                       # Number of insts issued each cycle
system.cpu.iq.issued_per_cycle::total              29                       # Number of insts issued each cycle
system.cpu.iq.fu_full::No_OpClass                   0                       # attempts to use FU when none available
system.cpu.iq.fu_full::IntAlu                       0                       # attempts to use FU when none available
system.cpu.iq.fu_full::IntMult                      0                       # attempts to use FU when none available
system.cpu.iq.fu_full::IntDiv                       0                       # attempts to use FU when none available
system.cpu.iq.fu_full::FloatAdd                     0                       # attempts to use FU when none available
system.cpu.iq.fu_full::FloatCmp                     0                       # attempts to use FU when none available
[...]
system.switch_cpus_1.iq.fu_busy_rate         0.002840                       # FU busy rate (busy events/executed inst)
system.switch_cpus_1.iq.int_inst_queue_reads    903086190                       # Number of integer instruction queue reads
system.switch_cpus_1.iq.int_inst_queue_writes    322720452                       # Number of integer instruction queue writes
system.switch_cpus_1.iq.int_inst_queue_wakeup_accesses    283440153                       # Number of integer instruction queue wakeup accesses
system.switch_cpus_1.iq.fp_inst_queue_reads    518801584                       # Number of floating instruction queue reads
system.switch_cpus_1.iq.fp_inst_queue_writes    315981527                       # Number of floating instruction queue writes
system.switch_cpus_1.iq.fp_inst_queue_wakeup_accesses    255929838                       # Number of floating instruction queue wakeup accesses
system.switch_cpus_1.iq.int_alu_accesses    285663354                       # Number of integer alu accesses
system.switch_cpus_1.iq.fp_alu_accesses     260060267                       # Number of floating point alu accesses
system.switch_cpus_1.iew.lsq.thread0.forwLoads     33679399                       # Number of loads that had data forwarded from stores
system.switch_cpus_1.iew.lsq.thread0.invAddrLoads            0                       # Number of loads ignored due to an invalid address
system.switch_cpus_1.iew.lsq.thread0.squashedLoads     12147056                       # Number of loads squashed
system.switch_cpus_1.iew.lsq.thread0.ignoredResponses         2354                       # Number of memory responses ignored because the instruction is squashed
system.switch_cpus_1.iew.lsq.thread0.memOrderViolation       569101                       # Number of memory ordering violations
system.switch_cpus_1.iew.lsq.thread0.squashedStores      5736513                       # Number of stores squashed
system.switch_cpus_1.iew.lsq.thread0.invAddrSwpfs            0                       # Number of software prefetches ignored due to an invalid address
system.switch_cpus_1.iew.lsq.thread0.blockedLoads            0                       # Number of blocked loads due to partial load-store forwarding
system.switch_cpus_1.iew.lsq.thread0.rescheduledLoads            0                       # Number of loads that were rescheduled
system.switch_cpus_1.iew.lsq.thread0.cacheBlocked          460                       # Number of times an access to memory failed due to the cache being blocked
system.switch_cpus_1.iew.iewIdleCycles              0                       # Number of cycles IEW is idle
system.switch_cpus_1.iew.iewSquashCycles      2773800                       # Number of cycles IEW is squashing
system.switch_cpus_1.iew.iewBlockCycles       8647806                       # Number of cycles IEW is blocking
system.switch_cpus_1.iew.iewUnblockCycles      4674796                       # Number of cycles IEW is unblocking
system.switch_cpus_1.iew.iewDispatchedInsts    569444711                       # Number of instructions dispatched to IQ
system.switch_cpus_1.iew.iewDispSquashedInsts       793992                       # Number of squashed instructions skipped by dispatch
system.switch_cpus_1.iew.iewDispLoadInsts    112203660                       # Number of dispatched load instructions
system.switch_cpus_1.iew.iewDispStoreInsts     45321043                       # Number of dispatched store instructions
system.switch_cpus_1.iew.iewDispNonSpecInsts            0                       # Number of dispatched non-speculative instructions
system.switch_cpus_1.iew.iewIQFullEvents      3784425                       # Number of times the IQ has become full, causing a stall
system.switch_cpus_1.iew.iewLSQFullEvents       844274                       # Number of times the LSQ has become full, causing a stall
system.switch_cpus_1.iew.memOrderViolationEvents       569101                       # Number of memory order violations
system.switch_cpus_1.iew.predictedTakenIncorrect      1939180                       # Number of branches that were predicted taken incorrectly
system.switch_cpus_1.iew.predictedNotTakenIncorrect       330574                       # Number of branches that were predicted not taken incorrectly
system.switch_cpus_1.iew.branchMispredicts      2269754                       # Number of branch mispredicts detected at execute
system.switch_cpus_1.iew.iewExecutedInsts    541325919                       # Number of executed instructions
system.switch_cpus_1.iew.iewExecLoadInsts    104904030                       # Number of load instructions executed
system.switch_cpus_1.iew.iewExecSquashedInsts      2857621                       # Number of squashed instructions skipped in execute
system.switch_cpus_1.iew.exec_swp                   0                       # number of swp insts executed
system.switch_cpus_1.iew.exec_nop              378245                       # number of nop insts executed
system.switch_cpus_1.iew.exec_refs          145537695                       # number of memory reference insts executed
system.switch_cpus_1.iew.exec_branches       47434754                       # Number of branches executed
system.switch_cpus_1.iew.exec_stores         40633665                       # Number of stores executed
system.switch_cpus_1.iew.exec_rate           1.630732                       # Inst execution rate
system.switch_cpus_1.iew.wb_sent            539607831                       # cumulative count of insts sent to commit
system.switch_cpus_1.iew.wb_count           539369991                       # cumulative count of insts written-back
system.switch_cpus_1.iew.wb_producers       378098798                       # num instructions producing a value
system.switch_cpus_1.iew.wb_consumers       440037685                       # num instructions consuming a value
system.switch_cpus_1.iew.wb_rate             1.624840                       # insts written-back per cycle
system.switch_cpus_1.iew.wb_fanout           0.859242                       # average fanout of values written-back
system.switch_cpus_1.commit.commitSquashedInsts     69129860                       # The number of squashed insts skipped by commit
system.switch_cpus_1.commit.branchMispredicts      2206924                       # The number of times a branch was mispredicted
system.switch_cpus_1.commit.committed_per_cycle::samples    321390005                       # Number of insts commited each cycle
system.switch_cpus_1.commit.committed_per_cycle::mean     1.556708                       # Number of insts commited each cycle
system.switch_cpus_1.commit.committed_per_cycle::stdev     2.428389                       # Number of insts commited each cycle
system.switch_cpus_1.commit.committed_per_cycle::underflows            0      0.00%      0.00% # Number of insts commited each cycle
system.switch_cpus_1.commit.committed_per_cycle::0    152157568     47.34%     47.34% # Number of insts commited each cycle
system.switch_cpus_1.commit.committed_per_cycle::1     80217781     24.96%     72.30% # Number of insts commited each cycle
system.switch_cpus_1.commit.committed_per_cycle::2     32317984     10.06%     82.36% # Number of insts commited each cycle
system.switch_cpus_1.commit.committed_per_cycle::3     13742009      4.28%     86.63% # Number of insts commited each cycle
system.switch_cpus_1.commit.committed_per_cycle::4      2135689      0.66%     87.30% # Number of insts commited each cycle
system.switch_cpus_1.commit.committed_per_cycle::5       733006      0.23%     87.53% # Number of insts commited each cycle
system.switch_cpus_1.commit.committed_per_cycle::6      1452392      0.45%     87.98% # Number of insts commited each cycle
system.switch_cpus_1.commit.committed_per_cycle::7     15760036      4.90%     92.88% # Number of insts commited each cycle
system.switch_cpus_1.commit.committed_per_cycle::8     22873540      7.12%    100.00% # Number of insts commited each cycle
system.switch_cpus_1.commit.committed_per_cycle::overflows            0      0.00%    100.00% # Number of insts commited each cycle
system.switch_cpus_1.commit.committed_per_cycle::min_value            0                       # Number of insts commited each cycle
system.switch_cpus_1.commit.committed_per_cycle::max_value            8                       # Number of insts commited each cycle
system.switch_cpus_1.commit.committed_per_cycle::total    321390005                       # Number of insts commited each cycle
system.switch_cpus_1.commit.committedInsts    500310486                       # Number of instructions committed
system.switch_cpus_1.commit.committedOps    500310486                       # Number of ops (including micro ops) committed
system.switch_cpus_1.commit.swp_count               0                       # Number of s/w prefetches committed
system.switch_cpus_1.commit.refs            139641126                       # Number of memory references committed
system.switch_cpus_1.commit.loads           100056600                       # Number of loads committed
system.switch_cpus_1.commit.membars                 0                       # Number of memory barriers committed
system.switch_cpus_1.commit.branches         43103237                       # Number of branches committed
system.switch_cpus_1.commit.fp_insts        248897121                       # Number of committed floating point instructions.
system.switch_cpus_1.commit.int_insts       387901750                       # Number of committed integer instructions.
system.switch_cpus_1.commit.function_calls       248275                       # Number of function calls committed.
system.switch_cpus_1.commit.op_class_0::No_OpClass       315681      0.06%      0.06% # Class of committed instruction
system.switch_cpus_1.commit.op_class_0::IntAlu    249485399     49.87%     49.93% # Class of committed instruction
system.switch_cpus_1.commit.op_class_0::IntMult         2638      0.00%     49.93% # Class of committed instruction
system.switch_cpus_1.commit.op_class_0::IntDiv            0      0.00%     49.93% # Class of committed instruction
system.switch_cpus_1.commit.op_class_0::FloatAdd     74120990     14.81%     64.74% # Class of committed instruction
system.switch_cpus_1.commit.op_class_0::FloatCmp      3322458      0.66%     65.41% # Class of committed instruction
system.switch_cpus_1.commit.op_class_0::FloatCvt        84006      0.02%     65.43% # Class of committed instruction
system.switch_cpus_1.commit.op_class_0::FloatMult     33226113      6.64%     72.07% # Class of committed instruction
system.switch_cpus_1.commit.op_class_0::FloatMultAcc            0      0.00%     72.07% # Class of committed instruction
system.switch_cpus_1.commit.op_class_0::FloatDiv       111813      0.02%     72.09% # Class of committed instruction
system.switch_cpus_1.commit.op_class_0::FloatMisc            0      0.00%     72.09% # Class of committed instruction
system.switch_cpus_1.commit.op_class_0::FloatSqrt          262      0.00%     72.09% # Class of committed instruction
system.switch_cpus_1.commit.op_class_0::SimdAdd            0      0.00%     72.09% # Class of committed instruction
system.switch_cpus_1.commit.op_class_0::SimdAddAcc            0      0.00%     72.09% # Class of committed instruction
system.switch_cpus_1.commit.op_class_0::SimdAlu            0      0.00%     72.09% # Class of committed instruction
system.switch_cpus_1.commit.op_class_0::SimdCmp            0      0.00%     72.09% # Class of committed instruction
system.switch_cpus_1.commit.op_class_0::SimdCvt            0      0.00%     72.09% # Class of committed instruction
system.switch_cpus_1.commit.op_class_0::SimdMisc            0      0.00%     72.09% # Class of committed instruction
system.switch_cpus_1.commit.op_class_0::SimdMult            0      0.00%     72.09% # Class of committed instruction
system.switch_cpus_1.commit.op_class_0::SimdMultAcc            0      0.00%     72.09% # Class of committed instruction
system.switch_cpus_1.commit.op_class_0::SimdShift            0      0.00%     72.09% # Class of committed instruction
system.switch_cpus_1.commit.op_class_0::SimdShiftAcc            0      0.00%     72.09% # Class of committed instruction
system.switch_cpus_1.commit.op_class_0::SimdSqrt            0      0.00%     72.09% # Class of committed instruction
system.switch_cpus_1.commit.op_class_0::SimdFloatAdd            0      0.00%     72.09% # Class of committed instruction
system.switch_cpus_1.commit.op_class_0::SimdFloatAlu            0      0.00%     72.09% # Class of committed instruction
system.switch_cpus_1.commit.op_class_0::SimdFloatCmp            0      0.00%     72.09% # Class of committed instruction
system.switch_cpus_1.commit.op_class_0::SimdFloatCvt            0      0.00%     72.09% # Class of committed instruction
system.switch_cpus_1.commit.op_class_0::SimdFloatDiv            0      0.00%     72.09% # Class of committed instruction
system.switch_cpus_1.commit.op_class_0::SimdFloatMisc            0      0.00%     72.09% # Class of committed instruction
system.switch_cpus_1.commit.op_class_0::SimdFloatMult            0      0.00%     72.09% # Class of committed instruction
system.switch_cpus_1.commit.op_class_0::SimdFloatMultAcc            0      0.00%     72.09% # Class of committed instruction
system.switch_cpus_1.commit.op_class_0::SimdFloatSqrt            0      0.00%     72.09% # Class of committed instruction
system.switch_cpus_1.commit.op_class_0::MemRead       872041      0.17%     72.26% # Class of committed instruction
system.switch_cpus_1.commit.op_class_0::MemWrite       737606      0.15%     72.41% # Class of committed instruction
system.switch_cpus_1.commit.op_class_0::FloatMemRead     99184559     19.82%     92.24% # Class of committed instruction
system.switch_cpus_1.commit.op_class_0::FloatMemWrite     38846920      7.76%    100.00% # Class of committed instruction
system.switch_cpus_1.commit.op_class_0::IprAccess            0      0.00%    100.00% # Class of committed instruction
system.switch_cpus_1.commit.op_class_0::InstPrefetch            0      0.00%    100.00% # Class of committed instruction
system.switch_cpus_1.commit.op_class_0::total    500310486                       # Class of committed instruction
system.switch_cpus_1.commit.bw_lim_events     22873540                       # number cycles where commit BW limit reached
system.switch_cpus_1.rob.rob_reads          867954458                       # The number of ROB reads
system.switch_cpus_1.rob.rob_writes        1149500800                       # The number of ROB writes
system.switch_cpus_1.timesIdled                     1                       # Number of times that the entire CPU went into an idle state and unscheduled itself
system.switch_cpus_1.idleCycles                     3                       # Total number of cycles that the CPU has spent unscheduled due to idling
system.switch_cpus_1.committedInsts         500000003                       # Number of Instructions Simulated
system.switch_cpus_1.committedOps           500000003                       # Number of Ops (including micro ops) Simulated
system.switch_cpus_1.cpi                     0.663905                       # CPI: Cycles Per Instruction
system.switch_cpus_1.cpi_total               0.663905                       # CPI: Total CPI of All Threads
system.switch_cpus_1.ipc                     1.506239                       # IPC: Instructions Per Cycle
system.switch_cpus_1.ipc_total               1.506239                       # IPC: Total IPC of All Threads
system.switch_cpus_1.int_regfile_reads      574636605                       # number of integer regfile reads
system.switch_cpus_1.int_regfile_writes     239036004                       # number of integer regfile writes
system.switch_cpus_1.fp_regfile_reads       264503101                       # number of floating regfile reads
system.switch_cpus_1.fp_regfile_writes      212795206                       # number of floating regfile writes
system.switch_cpus_1.misc_regfile_reads      74091462                       # number of misc regfile reads
system.switch_cpus_1.misc_regfile_writes         2599                       # number of misc regfile writes
system.tol3bus.snoop_filter.tot_requests        94259                       # Total number of requests made to the snoop filter.
system.tol3bus.snoop_filter.hit_single_requests        44874                       # Number of requests hitting in the snoop filter with a single holder of the requested data.
system.tol3bus.snoop_filter.hit_multi_requests            0                       # Number of requests hitting in the snoop filter with multiple (>1) holders of the requested data.
system.tol3bus.snoop_filter.tot_snoops              0                       # Total number of snoops made to the snoop filter.
system.tol3bus.snoop_filter.hit_single_snoops            0                       # Number of snoops hitting in the snoop filter with a single holder of the requested data.
system.tol3bus.snoop_filter.hit_multi_snoops            0                       # Number of snoops hitting in the snoop filter with multiple (>1) holders of the requested data.
system.tol3bus.pwrStateResidencyTicks::UNDEFINED 267371039198457                       # Cumulative time (in ticks) in various power states
system.tol3bus.trans_dist::ReadResp              5730                       # Transaction distribution
system.tol3bus.trans_dist::WritebackDirty        40029                       # Transaction distribution
system.tol3bus.trans_dist::CleanEvict            4845                       # Transaction distribution
system.tol3bus.trans_dist::ReadExReq            43655                       # Transaction distribution
system.tol3bus.trans_dist::ReadExResp           43655                       # Transaction distribution
system.tol3bus.trans_dist::ReadSharedReq         5730                       # Transaction distribution
system.tol3bus.pkt_count_system.cpu.l2.mem_side::system.l3.cpu_side       143644                       # Packet count per connected master and slave (bytes)
system.tol3bus.pkt_size_system.cpu.l2.mem_side::system.l3.cpu_side      5722496                       # Cumulative packet size per connected master and slave (bytes)
system.tol3bus.snoops                               0                       # Total snoops (count)
system.tol3bus.snoopTraffic                         0                       # Total snoop traffic (bytes)
system.tol3bus.snoop_fanout::samples            49385                       # Request fanout histogram
system.tol3bus.snoop_fanout::mean                   0                       # Request fanout histogram
system.tol3bus.snoop_fanout::stdev                  0                       # Request fanout histogram
system.tol3bus.snoop_fanout::underflows             0      0.00%      0.00% # Request fanout histogram
system.tol3bus.snoop_fanout::0                  49385    100.00%    100.00% # Request fanout histogram
system.tol3bus.snoop_fanout::1                      0      0.00%    100.00% # Request fanout histogram
system.tol3bus.snoop_fanout::overflows              0      0.00%    100.00% # Request fanout histogram
system.tol3bus.snoop_fanout::min_value              0                       # Request fanout histogram
system.tol3bus.snoop_fanout::max_value              0                       # Request fanout histogram
system.tol3bus.snoop_fanout::total              49385                       # Request fanout histogram
system.tol3bus.reqLayer0.occupancy           44717904                       # Layer occupancy (ticks)
system.tol3bus.reqLayer0.utilization              0.0                       # Layer utilization (%)
system.tol3bus.respLayer0.occupancy          32890410                       # Layer occupancy (ticks)
system.tol3bus.respLayer0.utilization             0.0                       # Layer utilization (%)

---------- End Simulation Statistics   ----------
