
---------- Begin Simulation Statistics ----------
sim_seconds                                 10.863760                       # Number of seconds simulated
sim_ticks                                10863760319289                       # Number of ticks simulated
final_tick                               172945943481789                       # Number of ticks from beginning of simulation (restored from checkpoints and never reset)
sim_freq                                 1000000000000                       # Frequency of simulated ticks
host_inst_rate                                  38323                       # Simulator instruction rate (inst/s)
host_op_rate                                    38323                       # Simulator op (including micro ops) rate (op/s)
host_tick_rate                              346945452                       # Simulator tick rate (ticks/s)
host_mem_usage                                2688692                       # Number of bytes of host memory used
host_seconds                                 31312.59                       # Real time elapsed on the host
sim_insts                                  1200000012                       # Number of instructions simulated
sim_ops                                    1200000012                       # Number of ops (including micro ops) simulated
system.voltage_domain.voltage                       1                       # Voltage in Volts
system.clk_domain.clock                          1000                       # Clock period in ticks
system.mem_ctrls0.pwrStateResidencyTicks::UNDEFINED 172945943481789                       # Cumulative time (in ticks) in various power states
system.mem_ctrls0.bytes_read::cpu.inst            128                       # Number of bytes read from this memory
system.mem_ctrls0.bytes_read::switch_cpus.inst         1472                       # Number of bytes read from this memory
system.mem_ctrls0.bytes_read::switch_cpus.data   1888391488                       # Number of bytes read from this memory
system.mem_ctrls0.bytes_read::switch_cpus_1.inst          128                       # Number of bytes read from this memory
system.mem_ctrls0.bytes_read::switch_cpus_1.data    376756544                       # Number of bytes read from this memory
system.mem_ctrls0.bytes_read::total        2265149760                       # Number of bytes read from this memory
system.mem_ctrls0.bytes_inst_read::cpu.inst          128                       # Number of instructions bytes read from this memory
system.mem_ctrls0.bytes_inst_read::switch_cpus.inst         1472                       # Number of instructions bytes read from this memory
system.mem_ctrls0.bytes_inst_read::switch_cpus_1.inst          128                       # Number of instructions bytes read from this memory
system.mem_ctrls0.bytes_inst_read::total         1728                       # Number of instructions bytes read from this memory
system.mem_ctrls0.bytes_written::writebacks      3635264                       # Number of bytes written to this memory
system.mem_ctrls0.bytes_written::total        3635264                       # Number of bytes written to this memory
system.mem_ctrls0.num_reads::cpu.inst               2                       # Number of read requests responded to by this memory
system.mem_ctrls0.num_reads::switch_cpus.inst           23                       # Number of read requests responded to by this memory
system.mem_ctrls0.num_reads::switch_cpus.data     29506117                       # Number of read requests responded to by this memory
system.mem_ctrls0.num_reads::switch_cpus_1.inst            2                       # Number of read requests responded to by this memory
system.mem_ctrls0.num_reads::switch_cpus_1.data      5886821                       # Number of read requests responded to by this memory
system.mem_ctrls0.num_reads::total           35392965                       # Number of read requests responded to by this memory
system.mem_ctrls0.num_writes::writebacks        56801                       # Number of write requests responded to by this memory
system.mem_ctrls0.num_writes::total             56801                       # Number of write requests responded to by this memory
system.mem_ctrls0.bw_read::cpu.inst                12                       # Total read bandwidth from this memory (bytes/s)
system.mem_ctrls0.bw_read::switch_cpus.inst          135                       # Total read bandwidth from this memory (bytes/s)
system.mem_ctrls0.bw_read::switch_cpus.data    173824848                       # Total read bandwidth from this memory (bytes/s)
system.mem_ctrls0.bw_read::switch_cpus_1.inst           12                       # Total read bandwidth from this memory (bytes/s)
system.mem_ctrls0.bw_read::switch_cpus_1.data     34680123                       # Total read bandwidth from this memory (bytes/s)
system.mem_ctrls0.bw_read::total            208505130                       # Total read bandwidth from this memory (bytes/s)
system.mem_ctrls0.bw_inst_read::cpu.inst           12                       # Instruction read bandwidth from this memory (bytes/s)
system.mem_ctrls0.bw_inst_read::switch_cpus.inst          135                       # Instruction read bandwidth from this memory (bytes/s)
system.mem_ctrls0.bw_inst_read::switch_cpus_1.inst           12                       # Instruction read bandwidth from this memory (bytes/s)
system.mem_ctrls0.bw_inst_read::total             159                       # Instruction read bandwidth from this memory (bytes/s)
system.mem_ctrls0.bw_write::writebacks         334623                       # Write bandwidth from this memory (bytes/s)
system.mem_ctrls0.bw_write::total              334623                       # Write bandwidth from this memory (bytes/s)
system.mem_ctrls0.bw_total::writebacks         334623                       # Total bandwidth to/from this memory (bytes/s)
system.mem_ctrls0.bw_total::cpu.inst               12                       # Total bandwidth to/from this memory (bytes/s)
system.mem_ctrls0.bw_total::switch_cpus.inst          135                       # Total bandwidth to/from this memory (bytes/s)
system.mem_ctrls0.bw_total::switch_cpus.data    173824848                       # Total bandwidth to/from this memory (bytes/s)
system.mem_ctrls0.bw_total::switch_cpus_1.inst           12                       # Total bandwidth to/from this memory (bytes/s)
system.mem_ctrls0.bw_total::switch_cpus_1.data     34680123                       # Total bandwidth to/from this memory (bytes/s)
system.mem_ctrls0.bw_total::total           208839753                       # Total bandwidth to/from this memory (bytes/s)
system.mem_ctrls0.readReqs                   35392965                       # Number of read requests accepted
system.mem_ctrls0.writeReqs                     56801                       # Number of write requests accepted
system.mem_ctrls0.readBursts                 35392965                       # Number of DRAM read bursts, including those serviced by the write queue
system.mem_ctrls0.writeBursts                   56801                       # Number of DRAM write bursts, including those merged in the write queue
system.mem_ctrls0.bytesReadDRAM            2264785728                       # Total number of bytes read from DRAM
system.mem_ctrls0.bytesReadWrQ                 364032                       # Total number of bytes read from write queue
system.mem_ctrls0.bytesWritten                3617664                       # Total number of bytes written to DRAM
system.mem_ctrls0.bytesReadSys             2265149760                       # Total read bytes from the system interface side
system.mem_ctrls0.bytesWrittenSys             3635264                       # Total written bytes from the system interface side
system.mem_ctrls0.servicedByWrQ                  5688                       # Number of DRAM read bursts serviced by the write queue
system.mem_ctrls0.mergedWrBursts                  247                       # Number of DRAM write bursts merged with an existing one
system.mem_ctrls0.neitherReadNorWriteReqs            0                       # Number of requests that are neither read nor write
system.mem_ctrls0.perBankRdBursts::0          2211695                       # Per bank write bursts
system.mem_ctrls0.perBankRdBursts::1          2207204                       # Per bank write bursts
system.mem_ctrls0.perBankRdBursts::2          2221418                       # Per bank write bursts
system.mem_ctrls0.perBankRdBursts::3          2216156                       # Per bank write bursts
system.mem_ctrls0.perBankRdBursts::4          2210626                       # Per bank write bursts
system.mem_ctrls0.perBankRdBursts::5          2206293                       # Per bank write bursts
system.mem_ctrls0.perBankRdBursts::6          2215458                       # Per bank write bursts
system.mem_ctrls0.perBankRdBursts::7          2196177                       # Per bank write bursts
system.mem_ctrls0.perBankRdBursts::8          2227569                       # Per bank write bursts
system.mem_ctrls0.perBankRdBursts::9          2216095                       # Per bank write bursts
system.mem_ctrls0.perBankRdBursts::10         2224191                       # Per bank write bursts
system.mem_ctrls0.perBankRdBursts::11         2223261                       # Per bank write bursts
system.mem_ctrls0.perBankRdBursts::12         2204502                       # Per bank write bursts
system.mem_ctrls0.perBankRdBursts::13         2202145                       # Per bank write bursts
system.mem_ctrls0.perBankRdBursts::14         2213075                       # Per bank write bursts
system.mem_ctrls0.perBankRdBursts::15         2191412                       # Per bank write bursts
system.mem_ctrls0.perBankWrBursts::0             3309                       # Per bank write bursts
system.mem_ctrls0.perBankWrBursts::1             3352                       # Per bank write bursts
system.mem_ctrls0.perBankWrBursts::2             3282                       # Per bank write bursts
system.mem_ctrls0.perBankWrBursts::3             4241                       # Per bank write bursts
system.mem_ctrls0.perBankWrBursts::4             4731                       # Per bank write bursts
system.mem_ctrls0.perBankWrBursts::5             3396                       # Per bank write bursts
system.mem_ctrls0.perBankWrBursts::6             3319                       # Per bank write bursts
system.mem_ctrls0.perBankWrBursts::7             3597                       # Per bank write bursts
system.mem_ctrls0.perBankWrBursts::8             3656                       # Per bank write bursts
system.mem_ctrls0.perBankWrBursts::9             3384                       # Per bank write bursts
system.mem_ctrls0.perBankWrBursts::10            3414                       # Per bank write bursts
system.mem_ctrls0.perBankWrBursts::11            3407                       # Per bank write bursts
system.mem_ctrls0.perBankWrBursts::12            3344                       # Per bank write bursts
system.mem_ctrls0.perBankWrBursts::13            3367                       # Per bank write bursts
system.mem_ctrls0.perBankWrBursts::14            3367                       # Per bank write bursts
system.mem_ctrls0.perBankWrBursts::15            3360                       # Per bank write bursts
system.mem_ctrls0.numRdRetry                        0                       # Number of times read queue was full causing retry
system.mem_ctrls0.numWrRetry                        0                       # Number of times write queue was full causing retry
system.mem_ctrls0.totGap                 10863759643722                       # Total gap between requests
system.mem_ctrls0.readPktSize::0                    0                       # Read request sizes (log2)
system.mem_ctrls0.readPktSize::1                    0                       # Read request sizes (log2)
system.mem_ctrls0.readPktSize::2                    0                       # Read request sizes (log2)
system.mem_ctrls0.readPktSize::3                    0                       # Read request sizes (log2)
system.mem_ctrls0.readPktSize::4                    0                       # Read request sizes (log2)
system.mem_ctrls0.readPktSize::5                    0                       # Read request sizes (log2)
system.mem_ctrls0.readPktSize::6             35392965                       # Read request sizes (log2)
system.mem_ctrls0.writePktSize::0                   0                       # Write request sizes (log2)
system.mem_ctrls0.writePktSize::1                   0                       # Write request sizes (log2)
system.mem_ctrls0.writePktSize::2                   0                       # Write request sizes (log2)
system.mem_ctrls0.writePktSize::3                   0                       # Write request sizes (log2)
system.mem_ctrls0.writePktSize::4                   0                       # Write request sizes (log2)
system.mem_ctrls0.writePktSize::5                   0                       # Write request sizes (log2)
system.mem_ctrls0.writePktSize::6               56801                       # Write request sizes (log2)
system.mem_ctrls0.rdQLenPdf::0               35386499                       # What read queue length does an incoming req see
system.mem_ctrls0.rdQLenPdf::1                    753                       # What read queue length does an incoming req see
system.mem_ctrls0.rdQLenPdf::2                     24                       # What read queue length does an incoming req see
system.mem_ctrls0.rdQLenPdf::3                      1                       # What read queue length does an incoming req see
system.mem_ctrls0.rdQLenPdf::4                      0                       # What read queue length does an incoming req see
system.mem_ctrls0.rdQLenPdf::5                      0                       # What read queue length does an incoming req see
system.mem_ctrls0.rdQLenPdf::6                      0                       # What read queue length does an incoming req see
system.mem_ctrls0.rdQLenPdf::7                      0                       # What read queue length does an incoming req see
system.mem_ctrls0.rdQLenPdf::8                      0                       # What read queue length does an incoming req see
system.mem_ctrls0.rdQLenPdf::9                      0                       # What read queue length does an incoming req see
system.mem_ctrls0.rdQLenPdf::10                     0                       # What read queue length does an incoming req see
system.mem_ctrls0.rdQLenPdf::11                     0                       # What read queue length does an incoming req see
system.mem_ctrls0.rdQLenPdf::12                     0                       # What read queue length does an incoming req see
system.mem_ctrls0.rdQLenPdf::13                     0                       # What read queue length does an incoming req see
system.mem_ctrls0.rdQLenPdf::14                     0                       # What read queue length does an incoming req see
system.mem_ctrls0.rdQLenPdf::15                     0                       # What read queue length does an incoming req see
system.mem_ctrls0.rdQLenPdf::16                     0                       # What read queue length does an incoming req see
system.mem_ctrls0.rdQLenPdf::17                     0                       # What read queue length does an incoming req see
system.mem_ctrls0.rdQLenPdf::18                     0                       # What read queue length does an incoming req see
system.mem_ctrls0.rdQLenPdf::19                     0                       # What read queue length does an incoming req see
system.mem_ctrls0.rdQLenPdf::20                     0                       # What read queue length does an incoming req see
system.mem_ctrls0.rdQLenPdf::21                     0                       # What read queue length does an incoming req see
system.mem_ctrls0.rdQLenPdf::22                     0                       # What read queue length does an incoming req see
system.mem_ctrls0.rdQLenPdf::23                     0                       # What read queue length does an incoming req see
system.mem_ctrls0.rdQLenPdf::24                     0                       # What read queue length does an incoming req see
system.mem_ctrls0.rdQLenPdf::25                     0                       # What read queue length does an incoming req see
system.mem_ctrls0.rdQLenPdf::26                     0                       # What read queue length does an incoming req see
system.mem_ctrls0.rdQLenPdf::27                     0                       # What read queue length does an incoming req see
system.mem_ctrls0.rdQLenPdf::28                     0                       # What read queue length does an incoming req see
system.mem_ctrls0.rdQLenPdf::29                     0                       # What read queue length does an incoming req see
system.mem_ctrls0.rdQLenPdf::30                     0                       # What read queue length does an incoming req see
system.mem_ctrls0.rdQLenPdf::31                     0                       # What read queue length does an incoming req see
system.mem_ctrls0.wrQLenPdf::0                      2                       # What write queue length does an incoming req see
system.mem_ctrls0.wrQLenPdf::1                      2                       # What write queue length does an incoming req see
system.mem_ctrls0.wrQLenPdf::2                      2                       # What write queue length does an incoming req see
system.mem_ctrls0.wrQLenPdf::3                      2                       # What write queue length does an incoming req see
system.mem_ctrls0.wrQLenPdf::4                      2                       # What write queue length does an incoming req see
system.mem_ctrls0.wrQLenPdf::5                      2                       # What write queue length does an incoming req see
system.mem_ctrls0.wrQLenPdf::6                      2                       # What write queue length does an incoming req see
system.mem_ctrls0.wrQLenPdf::7                      2                       # What write queue length does an incoming req see
system.mem_ctrls0.wrQLenPdf::8                      2                       # What write queue length does an incoming req see
system.mem_ctrls0.wrQLenPdf::9                      2                       # What write queue length does an incoming req see
system.mem_ctrls0.wrQLenPdf::10                     2                       # What write queue length does an incoming req see
system.mem_ctrls0.wrQLenPdf::11                     2                       # What write queue length does an incoming req see
system.mem_ctrls0.wrQLenPdf::12                     2                       # What write queue length does an incoming req see
system.mem_ctrls0.wrQLenPdf::13                     2                       # What write queue length does an incoming req see
system.mem_ctrls0.wrQLenPdf::14                     2                       # What write queue length does an incoming req see
system.mem_ctrls0.wrQLenPdf::15                  1634                       # What write queue length does an incoming req see
system.mem_ctrls0.wrQLenPdf::16                  1697                       # What write queue length does an incoming req see
system.mem_ctrls0.wrQLenPdf::17                  3320                       # What write queue length does an incoming req see
system.mem_ctrls0.wrQLenPdf::18                  3331                       # What write queue length does an incoming req see
system.mem_ctrls0.wrQLenPdf::19                  3327                       # What write queue length does an incoming req see
system.mem_ctrls0.wrQLenPdf::20                  3324                       # What write queue length does an incoming req see
system.mem_ctrls0.wrQLenPdf::21                  3327                       # What write queue length does an incoming req see
system.mem_ctrls0.wrQLenPdf::22                  3326                       # What write queue length does an incoming req see
system.mem_ctrls0.wrQLenPdf::23                  3324                       # What write queue length does an incoming req see
system.mem_ctrls0.wrQLenPdf::24                  3325                       # What write queue length does an incoming req see
system.mem_ctrls0.wrQLenPdf::25                  3324                       # What write queue length does an incoming req see
system.mem_ctrls0.wrQLenPdf::26                  3324                       # What write queue length does an incoming req see
system.mem_ctrls0.wrQLenPdf::27                  3323                       # What write queue length does an incoming req see
system.mem_ctrls0.wrQLenPdf::28                  3323                       # What write queue length does an incoming req see
system.mem_ctrls0.wrQLenPdf::29                  3327                       # What write queue length does an incoming req see
system.mem_ctrls0.wrQLenPdf::30                  3324                       # What write queue length does an incoming req see
system.mem_ctrls0.wrQLenPdf::31                  3322                       # What write queue length does an incoming req see
system.mem_ctrls0.wrQLenPdf::32                  3322                       # What write queue length does an incoming req see
system.mem_ctrls0.wrQLenPdf::33                     0                       # What write queue length does an incoming req see
system.mem_ctrls0.wrQLenPdf::34                     0                       # What write queue length does an incoming req see
system.mem_ctrls0.wrQLenPdf::35                     0                       # What write queue length does an incoming req see
system.mem_ctrls0.wrQLenPdf::36                     0                       # What write queue length does an incoming req see
system.mem_ctrls0.wrQLenPdf::37                     0                       # What write queue length does an incoming req see
system.mem_ctrls0.wrQLenPdf::38                     0                       # What write queue length does an incoming req see
system.mem_ctrls0.wrQLenPdf::39                     0                       # What write queue length does an incoming req see
system.mem_ctrls0.wrQLenPdf::40                     0                       # What write queue length does an incoming req see
system.mem_ctrls0.wrQLenPdf::41                     0                       # What write queue length does an incoming req see
system.mem_ctrls0.wrQLenPdf::42                     0                       # What write queue length does an incoming req see
system.mem_ctrls0.wrQLenPdf::43                     0                       # What write queue length does an incoming req see
system.mem_ctrls0.wrQLenPdf::44                     0                       # What write queue length does an incoming req see
system.mem_ctrls0.wrQLenPdf::45                     0                       # What write queue length does an incoming req see
system.mem_ctrls0.wrQLenPdf::46                     0                       # What write queue length does an incoming req see
system.mem_ctrls0.wrQLenPdf::47                     0                       # What write queue length does an incoming req see
system.mem_ctrls0.wrQLenPdf::48                     0                       # What write queue length does an incoming req see
system.mem_ctrls0.wrQLenPdf::49                     0                       # What write queue length does an incoming req see
system.mem_ctrls0.wrQLenPdf::50                     0                       # What write queue length does an incoming req see
system.mem_ctrls0.wrQLenPdf::51                     0                       # What write queue length does an incoming req see
system.mem_ctrls0.wrQLenPdf::52                     0                       # What write queue length does an incoming req see
system.mem_ctrls0.wrQLenPdf::53                     0                       # What write queue length does an incoming req see
system.mem_ctrls0.wrQLenPdf::54                     0                       # What write queue length does an incoming req see
system.mem_ctrls0.wrQLenPdf::55                     0                       # What write queue length does an incoming req see
system.mem_ctrls0.wrQLenPdf::56                     0                       # What write queue length does an incoming req see
system.mem_ctrls0.wrQLenPdf::57                     0                       # What write queue length does an incoming req see
system.mem_ctrls0.wrQLenPdf::58                     0                       # What write queue length does an incoming req see
system.mem_ctrls0.wrQLenPdf::59                     0                       # What write queue length does an incoming req see
system.mem_ctrls0.wrQLenPdf::60                     0                       # What write queue length does an incoming req see
system.mem_ctrls0.wrQLenPdf::61                     0                       # What write queue length does an incoming req see
system.mem_ctrls0.wrQLenPdf::62                     0                       # What write queue length does an incoming req see
system.mem_ctrls0.wrQLenPdf::63                     0                       # What write queue length does an incoming req see
system.mem_ctrls0.bytesPerActivate::samples     35377324                       # Bytes accessed per row activation
system.mem_ctrls0.bytesPerActivate::mean    64.120254                       # Bytes accessed per row activation
system.mem_ctrls0.bytesPerActivate::gmean    64.068887                       # Bytes accessed per row activation
system.mem_ctrls0.bytesPerActivate::stdev     4.264190                       # Bytes accessed per row activation
system.mem_ctrls0.bytesPerActivate::0-127     35332339     99.87%     99.87% # Bytes accessed per row activation
system.mem_ctrls0.bytesPerActivate::128-255        40033      0.11%     99.99% # Bytes accessed per row activation
system.mem_ctrls0.bytesPerActivate::256-383         3618      0.01%    100.00% # Bytes accessed per row activation
system.mem_ctrls0.bytesPerActivate::384-511          896      0.00%    100.00% # Bytes accessed per row activation
system.mem_ctrls0.bytesPerActivate::512-639          281      0.00%    100.00% # Bytes accessed per row activation
system.mem_ctrls0.bytesPerActivate::640-767          100      0.00%    100.00% # Bytes accessed per row activation
system.mem_ctrls0.bytesPerActivate::768-895           34      0.00%    100.00% # Bytes accessed per row activation
system.mem_ctrls0.bytesPerActivate::896-1023           13      0.00%    100.00% # Bytes accessed per row activation
system.mem_ctrls0.bytesPerActivate::1024-1151           10      0.00%    100.00% # Bytes accessed per row activation
system.mem_ctrls0.bytesPerActivate::total     35377324                       # Bytes accessed per row activation
system.mem_ctrls0.rdPerTurnAround::samples         3323                       # Reads before turning the bus around for writes
system.mem_ctrls0.rdPerTurnAround::mean  10614.390611                       # Reads before turning the bus around for writes
system.mem_ctrls0.rdPerTurnAround::gmean   249.629691                       # Reads before turning the bus around for writes
system.mem_ctrls0.rdPerTurnAround::stdev 82407.269353                       # Reads before turning the bus around for writes
system.mem_ctrls0.rdPerTurnAround::0-131071         3266     98.28%     98.28% # Reads before turning the bus around for writes
system.mem_ctrls0.rdPerTurnAround::131072-262143           31      0.93%     99.22% # Reads before turning the bus around for writes
system.mem_ctrls0.rdPerTurnAround::262144-393215            4      0.12%     99.34% # Reads before turning the bus around for writes
system.mem_ctrls0.rdPerTurnAround::393216-524287           11      0.33%     99.67% # Reads before turning the bus around for writes
system.mem_ctrls0.rdPerTurnAround::524288-655359            2      0.06%     99.73% # Reads before turning the bus around for writes
system.mem_ctrls0.rdPerTurnAround::786432-917503            4      0.12%     99.85% # Reads before turning the bus around for writes
system.mem_ctrls0.rdPerTurnAround::917504-1.04858e+06            2      0.06%     99.91% # Reads before turning the bus around for writes
system.mem_ctrls0.rdPerTurnAround::1.44179e+06-1.57286e+06            1      0.03%     99.94% # Reads before turning the bus around for writes
system.mem_ctrls0.rdPerTurnAround::1.96608e+06-2.09715e+06            1      0.03%     99.97% # Reads before turning the bus around for writes
system.mem_ctrls0.rdPerTurnAround::2.49037e+06-2.62144e+06            1      0.03%    100.00% # Reads before turning the bus around for writes
system.mem_ctrls0.rdPerTurnAround::total         3323                       # Reads before turning the bus around for writes
system.mem_ctrls0.wrPerTurnAround::samples         3323                       # Writes before turning the bus around for reads
system.mem_ctrls0.wrPerTurnAround::mean     17.010533                       # Writes before turning the bus around for reads
system.mem_ctrls0.wrPerTurnAround::gmean    16.980119                       # Writes before turning the bus around for reads
system.mem_ctrls0.wrPerTurnAround::stdev     1.021537                       # Writes before turning the bus around for reads
system.mem_ctrls0.wrPerTurnAround::16            1639     49.32%     49.32% # Writes before turning the bus around for reads
system.mem_ctrls0.wrPerTurnAround::17              51      1.53%     50.86% # Writes before turning the bus around for reads
system.mem_ctrls0.wrPerTurnAround::18            1600     48.15%     99.01% # Writes before turning the bus around for reads
system.mem_ctrls0.wrPerTurnAround::19              32      0.96%     99.97% # Writes before turning the bus around for reads
system.mem_ctrls0.wrPerTurnAround::27               1      0.03%    100.00% # Writes before turning the bus around for reads
system.mem_ctrls0.wrPerTurnAround::total         3323                       # Writes before turning the bus around for reads
system.mem_ctrls0.totQLat                1057009209174                       # Total ticks spent queuing
system.mem_ctrls0.totMemAccLat           1720520652924                       # Total ticks spent from burst creation until serviced by the DRAM
system.mem_ctrls0.totBusLat              176936385000                       # Total ticks spent in databus transfers
system.mem_ctrls0.avgQLat                    29869.75                       # Average queueing delay per DRAM burst
system.mem_ctrls0.avgBusLat                   5000.00                       # Average bus latency per DRAM burst
system.mem_ctrls0.avgMemAccLat               48619.75                       # Average memory access latency per DRAM burst
system.mem_ctrls0.avgRdBW                      208.47                       # Average DRAM read bandwidth in MiByte/s
system.mem_ctrls0.avgWrBW                        0.33                       # Average achieved write bandwidth in MiByte/s
system.mem_ctrls0.avgRdBWSys                   208.51                       # Average system read bandwidth in MiByte/s
system.mem_ctrls0.avgWrBWSys                     0.33                       # Average system write bandwidth in MiByte/s
system.mem_ctrls0.peakBW                     12800.00                       # Theoretical peak bandwidth in MiByte/s
system.mem_ctrls0.busUtil                        1.63                       # Data bus utilization in percentage
system.mem_ctrls0.busUtilRead                    1.63                       # Data bus utilization in percentage for reads
system.mem_ctrls0.busUtilWrite                   0.00                       # Data bus utilization in percentage for writes
system.mem_ctrls0.avgRdQLen                      1.00                       # Average read queue length when enqueuing
system.mem_ctrls0.avgWrQLen                     24.89                       # Average write queue length when enqueuing
system.mem_ctrls0.readRowHits                   58056                       # Number of row buffer hits during reads
system.mem_ctrls0.writeRowHits                   8417                       # Number of row buffer hits during writes
system.mem_ctrls0.readRowHitRate                 0.16                       # Row buffer hit rate for reads
system.mem_ctrls0.writeRowHitRate               14.88                       # Row buffer hit rate for writes
system.mem_ctrls0.avgGap                    306455.05                       # Average gap between requests
system.mem_ctrls0.pageHitRate                    0.19                       # Row buffer hit rate, read and write combined
system.mem_ctrls0_0.actEnergy            126238398720                       # Energy for activate commands per rank (pJ)
system.mem_ctrls0_0.preEnergy             67097277390                       # Energy for precharge commands per rank (pJ)
system.mem_ctrls0_0.readEnergy           126271092780                       # Energy for read commands per rank (pJ)
system.mem_ctrls0_0.writeEnergy             152564940                       # Energy for write commands per rank (pJ)
system.mem_ctrls0_0.refreshEnergy        857596743120.000244                       # Energy for refresh commands per rank (pJ)
system.mem_ctrls0_0.actBackEnergy        510513285510                       # Energy for active background per rank (pJ)
system.mem_ctrls0_0.preBackEnergy         19232732640                       # Energy for precharge background per rank (pJ)
system.mem_ctrls0_0.actPowerDownEnergy   4235944456710                       # Energy for active power-down per rank (pJ)
system.mem_ctrls0_0.prePowerDownEnergy   155374761600                       # Energy for precharge power-down per rank (pJ)
system.mem_ctrls0_0.selfRefreshEnergy        69285840                       # Energy for self refresh per rank (pJ)
system.mem_ctrls0_0.totalEnergy          6098490878580                       # Total energy per rank (pJ)
system.mem_ctrls0_0.averagePower           561.360956                       # Core power per rank (mW)
system.mem_ctrls0_0.totalIdleTime        9693990827664                       # Total Idle time Per DRAM Rank
system.mem_ctrls0_0.memoryStateTime::IDLE   8234930114                       # Time in different power states
system.mem_ctrls0_0.memoryStateTime::REF 362774006000                       # Time in different power states
system.mem_ctrls0_0.memoryStateTime::SREF    154126165                       # Time in different power states
system.mem_ctrls0_0.memoryStateTime::PRE_PDN 404918082750                       # Time in different power states
system.mem_ctrls0_0.memoryStateTime::ACT 798760110828                       # Time in different power states
system.mem_ctrls0_0.memoryStateTime::ACT_PDN 9288919063432                       # Time in different power states
system.mem_ctrls0_1.actEnergy            126355737480                       # Energy for activate commands per rank (pJ)
system.mem_ctrls0_1.preEnergy             67159667190                       # Energy for precharge commands per rank (pJ)
system.mem_ctrls0_1.readEnergy           126394065000                       # Energy for read commands per rank (pJ)
system.mem_ctrls0_1.writeEnergy             142500780                       # Energy for write commands per rank (pJ)
system.mem_ctrls0_1.refreshEnergy        857601045600.000244                       # Energy for refresh commands per rank (pJ)
system.mem_ctrls0_1.actBackEnergy        510166163490                       # Energy for active background per rank (pJ)
system.mem_ctrls0_1.preBackEnergy         19477818240                       # Energy for precharge background per rank (pJ)
system.mem_ctrls0_1.actPowerDownEnergy   4196714557260                       # Energy for active power-down per rank (pJ)
system.mem_ctrls0_1.prePowerDownEnergy   188449220160                       # Energy for precharge power-down per rank (pJ)
system.mem_ctrls0_1.selfRefreshEnergy        80133645                       # Energy for self refresh per rank (pJ)
system.mem_ctrls0_1.totalEnergy          6092541213405                       # Total energy per rank (pJ)
system.mem_ctrls0_1.averagePower           560.813294                       # Core power per rank (mW)
system.mem_ctrls0_1.totalIdleTime        9693201753123                       # Total Idle time Per DRAM Rank
system.mem_ctrls0_1.memoryStateTime::IDLE   8195278422                       # Time in different power states
system.mem_ctrls0_1.memoryStateTime::REF 362775838000                       # Time in different power states
system.mem_ctrls0_1.memoryStateTime::SREF    176137192                       # Time in different power states
system.mem_ctrls0_1.memoryStateTime::PRE_PDN 490336285005                       # Time in different power states
system.mem_ctrls0_1.memoryStateTime::ACT 799587292897                       # Time in different power states
system.mem_ctrls0_1.memoryStateTime::ACT_PDN 9202689487773                       # Time in different power states
system.mem_ctrls1.pwrStateResidencyTicks::UNDEFINED 172945943481789                       # Cumulative time (in ticks) in various power states
system.mem_ctrls1.bytes_read::cpu.inst            128                       # Number of bytes read from this memory
system.mem_ctrls1.bytes_read::cpu.data             64                       # Number of bytes read from this memory
system.mem_ctrls1.bytes_read::switch_cpus.inst         1088                       # Number of bytes read from this memory
system.mem_ctrls1.bytes_read::switch_cpus.data   1888509760                       # Number of bytes read from this memory
system.mem_ctrls1.bytes_read::switch_cpus_1.inst          320                       # Number of bytes read from this memory
system.mem_ctrls1.bytes_read::switch_cpus_1.data    376890496                       # Number of bytes read from this memory
system.mem_ctrls1.bytes_read::total        2265401856                       # Number of bytes read from this memory
system.mem_ctrls1.bytes_inst_read::cpu.inst          128                       # Number of instructions bytes read from this memory
system.mem_ctrls1.bytes_inst_read::switch_cpus.inst         1088                       # Number of instructions bytes read from this memory
system.mem_ctrls1.bytes_inst_read::switch_cpus_1.inst          320                       # Number of instructions bytes read from this memory
system.mem_ctrls1.bytes_inst_read::total         1536                       # Number of instructions bytes read from this memory
system.mem_ctrls1.bytes_written::writebacks      3667008                       # Number of bytes written to this memory
system.mem_ctrls1.bytes_written::total        3667008                       # Number of bytes written to this memory
system.mem_ctrls1.num_reads::cpu.inst               2                       # Number of read requests responded to by this memory
system.mem_ctrls1.num_reads::cpu.data               1                       # Number of read requests responded to by this memory
system.mem_ctrls1.num_reads::switch_cpus.inst           17                       # Number of read requests responded to by this memory
system.mem_ctrls1.num_reads::switch_cpus.data     29507965                       # Number of read requests responded to by this memory
system.mem_ctrls1.num_reads::switch_cpus_1.inst            5                       # Number of read requests responded to by this memory
system.mem_ctrls1.num_reads::switch_cpus_1.data      5888914                       # Number of read requests responded to by this memory
system.mem_ctrls1.num_reads::total           35396904                       # Number of read requests responded to by this memory
system.mem_ctrls1.num_writes::writebacks        57297                       # Number of write requests responded to by this memory
system.mem_ctrls1.num_writes::total             57297                       # Number of write requests responded to by this memory
system.mem_ctrls1.bw_read::cpu.inst                12                       # Total read bandwidth from this memory (bytes/s)
system.mem_ctrls1.bw_read::cpu.data                 6                       # Total read bandwidth from this memory (bytes/s)
system.mem_ctrls1.bw_read::switch_cpus.inst          100                       # Total read bandwidth from this memory (bytes/s)
system.mem_ctrls1.bw_read::switch_cpus.data    173835735                       # Total read bandwidth from this memory (bytes/s)
system.mem_ctrls1.bw_read::switch_cpus_1.inst           29                       # Total read bandwidth from this memory (bytes/s)
system.mem_ctrls1.bw_read::switch_cpus_1.data     34692453                       # Total read bandwidth from this memory (bytes/s)
system.mem_ctrls1.bw_read::total            208528335                       # Total read bandwidth from this memory (bytes/s)
system.mem_ctrls1.bw_inst_read::cpu.inst           12                       # Instruction read bandwidth from this memory (bytes/s)
system.mem_ctrls1.bw_inst_read::switch_cpus.inst          100                       # Instruction read bandwidth from this memory (bytes/s)
system.mem_ctrls1.bw_inst_read::switch_cpus_1.inst           29                       # Instruction read bandwidth from this memory (bytes/s)
system.mem_ctrls1.bw_inst_read::total             141                       # Instruction read bandwidth from this memory (bytes/s)
system.mem_ctrls1.bw_write::writebacks         337545                       # Write bandwidth from this memory (bytes/s)
system.mem_ctrls1.bw_write::total              337545                       # Write bandwidth from this memory (bytes/s)
system.mem_ctrls1.bw_total::writebacks         337545                       # Total bandwidth to/from this memory (bytes/s)
system.mem_ctrls1.bw_total::cpu.inst               12                       # Total bandwidth to/from this memory (bytes/s)
system.mem_ctrls1.bw_total::cpu.data                6                       # Total bandwidth to/from this memory (bytes/s)
system.mem_ctrls1.bw_total::switch_cpus.inst          100                       # Total bandwidth to/from this memory (bytes/s)
system.mem_ctrls1.bw_total::switch_cpus.data    173835735                       # Total bandwidth to/from this memory (bytes/s)
system.mem_ctrls1.bw_total::switch_cpus_1.inst           29                       # Total bandwidth to/from this memory (bytes/s)
system.mem_ctrls1.bw_total::switch_cpus_1.data     34692453                       # Total bandwidth to/from this memory (bytes/s)
system.mem_ctrls1.bw_total::total           208865880                       # Total bandwidth to/from this memory (bytes/s)
system.mem_ctrls1.readReqs                   35396904                       # Number of read requests accepted
system.mem_ctrls1.writeReqs                     57297                       # Number of write requests accepted
system.mem_ctrls1.readBursts                 35396904                       # Number of DRAM read bursts, including those serviced by the write queue
system.mem_ctrls1.writeBursts                   57297                       # Number of DRAM write bursts, including those merged in the write queue
system.mem_ctrls1.bytesReadDRAM            2265052032                       # Total number of bytes read from DRAM
system.mem_ctrls1.bytesReadWrQ                 349824                       # Total number of bytes read from write queue
system.mem_ctrls1.bytesWritten                3650560                       # Total number of bytes written to DRAM
system.mem_ctrls1.bytesReadSys             2265401856                       # Total read bytes from the system interface side
system.mem_ctrls1.bytesWrittenSys             3667008                       # Total written bytes from the system interface side
system.mem_ctrls1.servicedByWrQ                  5466                       # Number of DRAM read bursts serviced by the write queue
system.mem_ctrls1.mergedWrBursts                  234                       # Number of DRAM write bursts merged with an existing one
system.mem_ctrls1.neitherReadNorWriteReqs            0                       # Number of requests that are neither read nor write
system.mem_ctrls1.perBankRdBursts::0          2211419                       # Per bank write bursts
system.mem_ctrls1.perBankRdBursts::1          2210669                       # Per bank write bursts
system.mem_ctrls1.perBankRdBursts::2          2226909                       # Per bank write bursts
system.mem_ctrls1.perBankRdBursts::3          2212093                       # Per bank write bursts
system.mem_ctrls1.perBankRdBursts::4          2216040                       # Per bank write bursts
system.mem_ctrls1.perBankRdBursts::5          2207372                       # Per bank write bursts
system.mem_ctrls1.perBankRdBursts::6          2209492                       # Per bank write bursts
system.mem_ctrls1.perBankRdBursts::7          2207221                       # Per bank write bursts
system.mem_ctrls1.perBankRdBursts::8          2228231                       # Per bank write bursts
system.mem_ctrls1.perBankRdBursts::9          2209654                       # Per bank write bursts
system.mem_ctrls1.perBankRdBursts::10         2223096                       # Per bank write bursts
system.mem_ctrls1.perBankRdBursts::11         2215134                       # Per bank write bursts
system.mem_ctrls1.perBankRdBursts::12         2204544                       # Per bank write bursts
system.mem_ctrls1.perBankRdBursts::13         2200920                       # Per bank write bursts
system.mem_ctrls1.perBankRdBursts::14         2210678                       # Per bank write bursts
system.mem_ctrls1.perBankRdBursts::15         2197966                       # Per bank write bursts
system.mem_ctrls1.perBankWrBursts::0             3356                       # Per bank write bursts
system.mem_ctrls1.perBankWrBursts::1             3327                       # Per bank write bursts
system.mem_ctrls1.perBankWrBursts::2             3273                       # Per bank write bursts
system.mem_ctrls1.perBankWrBursts::3             4582                       # Per bank write bursts
system.mem_ctrls1.perBankWrBursts::4             4656                       # Per bank write bursts
system.mem_ctrls1.perBankWrBursts::5             3376                       # Per bank write bursts
system.mem_ctrls1.perBankWrBursts::6             3371                       # Per bank write bursts
system.mem_ctrls1.perBankWrBursts::7             3501                       # Per bank write bursts
system.mem_ctrls1.perBankWrBursts::8             3566                       # Per bank write bursts
system.mem_ctrls1.perBankWrBursts::9             3417                       # Per bank write bursts
system.mem_ctrls1.perBankWrBursts::10            3467                       # Per bank write bursts
system.mem_ctrls1.perBankWrBursts::11            3492                       # Per bank write bursts
system.mem_ctrls1.perBankWrBursts::12            3410                       # Per bank write bursts
system.mem_ctrls1.perBankWrBursts::13            3480                       # Per bank write bursts
system.mem_ctrls1.perBankWrBursts::14            3383                       # Per bank write bursts
system.mem_ctrls1.perBankWrBursts::15            3383                       # Per bank write bursts
system.mem_ctrls1.numRdRetry                        0                       # Number of times read queue was full causing retry
system.mem_ctrls1.numWrRetry                        0                       # Number of times write queue was full causing retry
system.mem_ctrls1.totGap                 10863760177854                       # Total gap between requests
system.mem_ctrls1.readPktSize::0                    0                       # Read request sizes (log2)
system.mem_ctrls1.readPktSize::1                    0                       # Read request sizes (log2)
system.mem_ctrls1.readPktSize::2                    0                       # Read request sizes (log2)
system.mem_ctrls1.readPktSize::3                    0                       # Read request sizes (log2)
system.mem_ctrls1.readPktSize::4                    0                       # Read request sizes (log2)
system.mem_ctrls1.readPktSize::5                    0                       # Read request sizes (log2)
system.mem_ctrls1.readPktSize::6             35396904                       # Read request sizes (log2)
system.mem_ctrls1.writePktSize::0                   0                       # Write request sizes (log2)
system.mem_ctrls1.writePktSize::1                   0                       # Write request sizes (log2)
system.mem_ctrls1.writePktSize::2                   0                       # Write request sizes (log2)
system.mem_ctrls1.writePktSize::3                   0                       # Write request sizes (log2)
system.mem_ctrls1.writePktSize::4                   0                       # Write request sizes (log2)
system.mem_ctrls1.writePktSize::5                   0                       # Write request sizes (log2)
system.mem_ctrls1.writePktSize::6               57297                       # Write request sizes (log2)
system.mem_ctrls1.rdQLenPdf::0               35390546                       # What read queue length does an incoming req see
system.mem_ctrls1.rdQLenPdf::1                    862                       # What read queue length does an incoming req see
system.mem_ctrls1.rdQLenPdf::2                     30                       # What read queue length does an incoming req see
system.mem_ctrls1.rdQLenPdf::3                      0                       # What read queue length does an incoming req see
system.mem_ctrls1.rdQLenPdf::4                      0                       # What read queue length does an incoming req see
system.mem_ctrls1.rdQLenPdf::5                      0                       # What read queue length does an incoming req see
system.mem_ctrls1.rdQLenPdf::6                      0                       # What read queue length does an incoming req see
system.mem_ctrls1.rdQLenPdf::7                      0                       # What read queue length does an incoming req see
system.mem_ctrls1.rdQLenPdf::8                      0                       # What read queue length does an incoming req see
system.mem_ctrls1.rdQLenPdf::9                      0                       # What read queue length does an incoming req see
system.mem_ctrls1.rdQLenPdf::10                     0                       # What read queue length does an incoming req see
system.mem_ctrls1.rdQLenPdf::11                     0                       # What read queue length does an incoming req see
system.mem_ctrls1.rdQLenPdf::12                     0                       # What read queue length does an incoming req see
system.mem_ctrls1.rdQLenPdf::13                     0                       # What read queue length does an incoming req see
system.mem_ctrls1.rdQLenPdf::14                     0                       # What read queue length does an incoming req see
system.mem_ctrls1.rdQLenPdf::15                     0                       # What read queue length does an incoming req see
system.mem_ctrls1.rdQLenPdf::16                     0                       # What read queue length does an incoming req see
system.mem_ctrls1.rdQLenPdf::17                     0                       # What read queue length does an incoming req see
system.mem_ctrls1.rdQLenPdf::18                     0                       # What read queue length does an incoming req see
system.mem_ctrls1.rdQLenPdf::19                     0                       # What read queue length does an incoming req see
system.mem_ctrls1.rdQLenPdf::20                     0                       # What read queue length does an incoming req see
system.mem_ctrls1.rdQLenPdf::21                     0                       # What read queue length does an incoming req see
system.mem_ctrls1.rdQLenPdf::22                     0                       # What read queue length does an incoming req see
system.mem_ctrls1.rdQLenPdf::23                     0                       # What read queue length does an incoming req see
system.mem_ctrls1.rdQLenPdf::24                     0                       # What read queue length does an incoming req see
system.mem_ctrls1.rdQLenPdf::25                     0                       # What read queue length does an incoming req see
system.mem_ctrls1.rdQLenPdf::26                     0                       # What read queue length does an incoming req see
system.mem_ctrls1.rdQLenPdf::27                     0                       # What read queue length does an incoming req see
system.mem_ctrls1.rdQLenPdf::28                     0                       # What read queue length does an incoming req see
system.mem_ctrls1.rdQLenPdf::29                     0                       # What read queue length does an incoming req see
system.mem_ctrls1.rdQLenPdf::30                     0                       # What read queue length does an incoming req see
system.mem_ctrls1.rdQLenPdf::31                     0                       # What read queue length does an incoming req see
system.mem_ctrls1.wrQLenPdf::0                      2                       # What write queue length does an incoming req see
system.mem_ctrls1.wrQLenPdf::1                      2                       # What write queue length does an incoming req see
system.mem_ctrls1.wrQLenPdf::2                      2                       # What write queue length does an incoming req see
system.mem_ctrls1.wrQLenPdf::3                      2                       # What write queue length does an incoming req see
system.mem_ctrls1.wrQLenPdf::4                      2                       # What write queue length does an incoming req see
system.mem_ctrls1.wrQLenPdf::5                      2                       # What write queue length does an incoming req see
system.mem_ctrls1.wrQLenPdf::6                      2                       # What write queue length does an incoming req see
system.mem_ctrls1.wrQLenPdf::7                      2                       # What write queue length does an incoming req see
system.mem_ctrls1.wrQLenPdf::8                      2                       # What write queue length does an incoming req see
system.mem_ctrls1.wrQLenPdf::9                      2                       # What write queue length does an incoming req see
system.mem_ctrls1.wrQLenPdf::10                     2                       # What write queue length does an incoming req see
system.mem_ctrls1.wrQLenPdf::11                     2                       # What write queue length does an incoming req see
system.mem_ctrls1.wrQLenPdf::12                     2                       # What write queue length does an incoming req see
system.mem_ctrls1.wrQLenPdf::13                     2                       # What write queue length does an incoming req see
system.mem_ctrls1.wrQLenPdf::14                     2                       # What write queue length does an incoming req see
system.mem_ctrls1.wrQLenPdf::15                  1700                       # What write queue length does an incoming req see
system.mem_ctrls1.wrQLenPdf::16                  1775                       # What write queue length does an incoming req see
system.mem_ctrls1.wrQLenPdf::17                  3347                       # What write queue length does an incoming req see
system.mem_ctrls1.wrQLenPdf::18                  3353                       # What write queue length does an incoming req see
system.mem_ctrls1.wrQLenPdf::19                  3348                       # What write queue length does an incoming req see
system.mem_ctrls1.wrQLenPdf::20                  3347                       # What write queue length does an incoming req see
system.mem_ctrls1.wrQLenPdf::21                  3348                       # What write queue length does an incoming req see
system.mem_ctrls1.wrQLenPdf::22                  3349                       # What write queue length does an incoming req see
system.mem_ctrls1.wrQLenPdf::23                  3347                       # What write queue length does an incoming req see
system.mem_ctrls1.wrQLenPdf::24                  3346                       # What write queue length does an incoming req see
system.mem_ctrls1.wrQLenPdf::25                  3346                       # What write queue length does an incoming req see
system.mem_ctrls1.wrQLenPdf::26                  3345                       # What write queue length does an incoming req see
system.mem_ctrls1.wrQLenPdf::27                  3346                       # What write queue length does an incoming req see
system.mem_ctrls1.wrQLenPdf::28                  3351                       # What write queue length does an incoming req see
system.mem_ctrls1.wrQLenPdf::29                  3349                       # What write queue length does an incoming req see
system.mem_ctrls1.wrQLenPdf::30                  3346                       # What write queue length does an incoming req see
system.mem_ctrls1.wrQLenPdf::31                  3345                       # What write queue length does an incoming req see
system.mem_ctrls1.wrQLenPdf::32                  3345                       # What write queue length does an incoming req see
system.mem_ctrls1.wrQLenPdf::33                     0                       # What write queue length does an incoming req see
system.mem_ctrls1.wrQLenPdf::34                     0                       # What write queue length does an incoming req see
system.mem_ctrls1.wrQLenPdf::35                     0                       # What write queue length does an incoming req see
system.mem_ctrls1.wrQLenPdf::36                     0                       # What write queue length does an incoming req see
system.mem_ctrls1.wrQLenPdf::37                     0                       # What write queue length does an incoming req see
system.mem_ctrls1.wrQLenPdf::38                     0                       # What write queue length does an incoming req see
system.mem_ctrls1.wrQLenPdf::39                     0                       # What write queue length does an incoming req see
system.mem_ctrls1.wrQLenPdf::40                     0                       # What write queue length does an incoming req see
system.mem_ctrls1.wrQLenPdf::41                     0                       # What write queue length does an incoming req see
system.mem_ctrls1.wrQLenPdf::42                     0                       # What write queue length does an incoming req see
system.mem_ctrls1.wrQLenPdf::43                     0                       # What write queue length does an incoming req see
system.mem_ctrls1.wrQLenPdf::44                     0                       # What write queue length does an incoming req see
system.mem_ctrls1.wrQLenPdf::45                     0                       # What write queue length does an incoming req see
system.mem_ctrls1.wrQLenPdf::46                     0                       # What write queue length does an incoming req see
system.mem_ctrls1.wrQLenPdf::47                     0                       # What write queue length does an incoming req see
system.mem_ctrls1.wrQLenPdf::48                     0                       # What write queue length does an incoming req see
system.mem_ctrls1.wrQLenPdf::49                     0                       # What write queue length does an incoming req see
system.mem_ctrls1.wrQLenPdf::50                     0                       # What write queue length does an incoming req see
system.mem_ctrls1.wrQLenPdf::51                     0                       # What write queue length does an incoming req see
system.mem_ctrls1.wrQLenPdf::52                     0                       # What write queue length does an incoming req see
system.mem_ctrls1.wrQLenPdf::53                     0                       # What write queue length does an incoming req see
system.mem_ctrls1.wrQLenPdf::54                     0                       # What write queue length does an incoming req see
system.mem_ctrls1.wrQLenPdf::55                     0                       # What write queue length does an incoming req see
system.mem_ctrls1.wrQLenPdf::56                     0                       # What write queue length does an incoming req see
system.mem_ctrls1.wrQLenPdf::57                     0                       # What write queue length does an incoming req see
system.mem_ctrls1.wrQLenPdf::58                     0                       # What write queue length does an incoming req see
system.mem_ctrls1.wrQLenPdf::59                     0                       # What write queue length does an incoming req see
system.mem_ctrls1.wrQLenPdf::60                     0                       # What write queue length does an incoming req see
system.mem_ctrls1.wrQLenPdf::61                     0                       # What write queue length does an incoming req see
system.mem_ctrls1.wrQLenPdf::62                     0                       # What write queue length does an incoming req see
system.mem_ctrls1.wrQLenPdf::63                     0                       # What write queue length does an incoming req see
system.mem_ctrls1.bytesPerActivate::samples     35381530                       # Bytes accessed per row activation
system.mem_ctrls1.bytesPerActivate::mean    64.121099                       # Bytes accessed per row activation
system.mem_ctrls1.bytesPerActivate::gmean    64.069197                       # Bytes accessed per row activation
system.mem_ctrls1.bytesPerActivate::stdev     4.310694                       # Bytes accessed per row activation
system.mem_ctrls1.bytesPerActivate::0-127     35336351     99.87%     99.87% # Bytes accessed per row activation
system.mem_ctrls1.bytesPerActivate::128-255        40237      0.11%     99.99% # Bytes accessed per row activation
system.mem_ctrls1.bytesPerActivate::256-383         3551      0.01%    100.00% # Bytes accessed per row activation
system.mem_ctrls1.bytesPerActivate::384-511          918      0.00%    100.00% # Bytes accessed per row activation
system.mem_ctrls1.bytesPerActivate::512-639          296      0.00%    100.00% # Bytes accessed per row activation
system.mem_ctrls1.bytesPerActivate::640-767          114      0.00%    100.00% # Bytes accessed per row activation
system.mem_ctrls1.bytesPerActivate::768-895           44      0.00%    100.00% # Bytes accessed per row activation
system.mem_ctrls1.bytesPerActivate::896-1023           13      0.00%    100.00% # Bytes accessed per row activation
system.mem_ctrls1.bytesPerActivate::1024-1151            6      0.00%    100.00% # Bytes accessed per row activation
system.mem_ctrls1.bytesPerActivate::total     35381530                       # Bytes accessed per row activation
system.mem_ctrls1.rdPerTurnAround::samples         3346                       # Reads before turning the bus around for writes
system.mem_ctrls1.rdPerTurnAround::mean  10554.907651                       # Reads before turning the bus around for writes
system.mem_ctrls1.rdPerTurnAround::gmean   257.053907                       # Reads before turning the bus around for writes
system.mem_ctrls1.rdPerTurnAround::stdev 79037.863670                       # Reads before turning the bus around for writes
system.mem_ctrls1.rdPerTurnAround::0-65535         3264     97.55%     97.55% # Reads before turning the bus around for writes
system.mem_ctrls1.rdPerTurnAround::65536-131071           29      0.87%     98.42% # Reads before turning the bus around for writes
system.mem_ctrls1.rdPerTurnAround::131072-196607           18      0.54%     98.95% # Reads before turning the bus around for writes
system.mem_ctrls1.rdPerTurnAround::196608-262143           11      0.33%     99.28% # Reads before turning the bus around for writes
system.mem_ctrls1.rdPerTurnAround::262144-327679            2      0.06%     99.34% # Reads before turning the bus around for writes
system.mem_ctrls1.rdPerTurnAround::327680-393215            2      0.06%     99.40% # Reads before turning the bus around for writes
system.mem_ctrls1.rdPerTurnAround::393216-458751            3      0.09%     99.49% # Reads before turning the bus around for writes
system.mem_ctrls1.rdPerTurnAround::458752-524287            1      0.03%     99.52% # Reads before turning the bus around for writes
system.mem_ctrls1.rdPerTurnAround::524288-589823            1      0.03%     99.55% # Reads before turning the bus around for writes
system.mem_ctrls1.rdPerTurnAround::589824-655359            5      0.15%     99.70% # Reads before turning the bus around for writes
system.mem_ctrls1.rdPerTurnAround::655360-720895            2      0.06%     99.76% # Reads before turning the bus around for writes
system.mem_ctrls1.rdPerTurnAround::851968-917503            2      0.06%     99.82% # Reads before turning the bus around for writes
system.mem_ctrls1.rdPerTurnAround::1.04858e+06-1.11411e+06            1      0.03%     99.85% # Reads before turning the bus around for writes
system.mem_ctrls1.rdPerTurnAround::1.37626e+06-1.44179e+06            1      0.03%     99.88% # Reads before turning the bus around for writes
system.mem_ctrls1.rdPerTurnAround::1.44179e+06-1.50733e+06            1      0.03%     99.91% # Reads before turning the bus around for writes
system.mem_ctrls1.rdPerTurnAround::1.57286e+06-1.6384e+06            1      0.03%     99.94% # Reads before turning the bus around for writes
system.mem_ctrls1.rdPerTurnAround::1.6384e+06-1.70394e+06            1      0.03%     99.97% # Reads before turning the bus around for writes
system.mem_ctrls1.rdPerTurnAround::1.70394e+06-1.76947e+06            1      0.03%    100.00% # Reads before turning the bus around for writes
system.mem_ctrls1.rdPerTurnAround::total         3346                       # Reads before turning the bus around for writes
system.mem_ctrls1.wrPerTurnAround::samples         3346                       # Writes before turning the bus around for reads
system.mem_ctrls1.wrPerTurnAround::mean     17.047221                       # Writes before turning the bus around for reads
system.mem_ctrls1.wrPerTurnAround::gmean    17.017192                       # Writes before turning the bus around for reads
system.mem_ctrls1.wrPerTurnAround::stdev     1.011819                       # Writes before turning the bus around for reads
system.mem_ctrls1.wrPerTurnAround::16            1585     47.37%     47.37% # Writes before turning the bus around for reads
system.mem_ctrls1.wrPerTurnAround::17              60      1.79%     49.16% # Writes before turning the bus around for reads
system.mem_ctrls1.wrPerTurnAround::18            1663     49.70%     98.86% # Writes before turning the bus around for reads
system.mem_ctrls1.wrPerTurnAround::19              37      1.11%     99.97% # Writes before turning the bus around for reads
system.mem_ctrls1.wrPerTurnAround::23               1      0.03%    100.00% # Writes before turning the bus around for reads
system.mem_ctrls1.wrPerTurnAround::total         3346                       # Writes before turning the bus around for reads
system.mem_ctrls1.totQLat                1036334422239                       # Total ticks spent queuing
system.mem_ctrls1.totMemAccLat           1699923884739                       # Total ticks spent from burst creation until serviced by the DRAM
system.mem_ctrls1.totBusLat              176957190000                       # Total ticks spent in databus transfers
system.mem_ctrls1.avgQLat                    29282.07                       # Average queueing delay per DRAM burst
system.mem_ctrls1.avgBusLat                   5000.00                       # Average bus latency per DRAM burst
system.mem_ctrls1.avgMemAccLat               48032.07                       # Average memory access latency per DRAM burst
system.mem_ctrls1.avgRdBW                      208.50                       # Average DRAM read bandwidth in MiByte/s
system.mem_ctrls1.avgWrBW                        0.34                       # Average achieved write bandwidth in MiByte/s
system.mem_ctrls1.avgRdBWSys                   208.53                       # Average system read bandwidth in MiByte/s
system.mem_ctrls1.avgWrBWSys                     0.34                       # Average system write bandwidth in MiByte/s
system.mem_ctrls1.peakBW                     12800.00                       # Theoretical peak bandwidth in MiByte/s
system.mem_ctrls1.busUtil                        1.63                       # Data bus utilization in percentage
system.mem_ctrls1.busUtilRead                    1.63                       # Data bus utilization in percentage for reads
system.mem_ctrls1.busUtilWrite                   0.00                       # Data bus utilization in percentage for writes
system.mem_ctrls1.avgRdQLen                      1.00                       # Average read queue length when enqueuing
system.mem_ctrls1.avgWrQLen                     24.19                       # Average write queue length when enqueuing
system.mem_ctrls1.readRowHits                   58387                       # Number of row buffer hits during reads
system.mem_ctrls1.writeRowHits                   8561                       # Number of row buffer hits during writes
system.mem_ctrls1.readRowHitRate                 0.16                       # Row buffer hit rate for reads
system.mem_ctrls1.writeRowHitRate               15.00                       # Row buffer hit rate for writes
system.mem_ctrls1.avgGap                    306416.73                       # Average gap between requests
system.mem_ctrls1.pageHitRate                    0.19                       # Row buffer hit rate, read and write combined
system.mem_ctrls1_0.actEnergy            126353524080                       # Energy for activate commands per rank (pJ)
system.mem_ctrls1_0.preEnergy             67158490740                       # Energy for precharge commands per rank (pJ)
system.mem_ctrls1_0.readEnergy           126386675100                       # Energy for read commands per rank (pJ)
system.mem_ctrls1_0.writeEnergy             153687240                       # Energy for write commands per rank (pJ)
system.mem_ctrls1_0.refreshEnergy        857601045600.000244                       # Energy for refresh commands per rank (pJ)
system.mem_ctrls1_0.actBackEnergy        510982757460                       # Energy for active background per rank (pJ)
system.mem_ctrls1_0.preBackEnergy         19398070080                       # Energy for precharge background per rank (pJ)
system.mem_ctrls1_0.actPowerDownEnergy   4223542750110                       # Energy for active power-down per rank (pJ)
system.mem_ctrls1_0.prePowerDownEnergy   165257412480                       # Energy for precharge power-down per rank (pJ)
system.mem_ctrls1_0.selfRefreshEnergy        73365525                       # Energy for self refresh per rank (pJ)
system.mem_ctrls1_0.totalEnergy          6096908108625                       # Total energy per rank (pJ)
system.mem_ctrls1_0.averagePower           561.215252                       # Core power per rank (mW)
system.mem_ctrls1_0.totalIdleTime        9693045020734                       # Total Idle time Per DRAM Rank
system.mem_ctrls1_0.memoryStateTime::IDLE   8317723041                       # Time in different power states
system.mem_ctrls1_0.memoryStateTime::REF 362775563174                       # Time in different power states
system.mem_ctrls1_0.memoryStateTime::SREF    154782115                       # Time in different power states
system.mem_ctrls1_0.memoryStateTime::PRE_PDN 430362183855                       # Time in different power states
system.mem_ctrls1_0.memoryStateTime::ACT 799622012340                       # Time in different power states
system.mem_ctrls1_0.memoryStateTime::ACT_PDN 9262528054764                       # Time in different power states
system.mem_ctrls1_1.actEnergy            126270600120                       # Energy for activate commands per rank (pJ)
system.mem_ctrls1_1.preEnergy             67114415610                       # Energy for precharge commands per rank (pJ)
system.mem_ctrls1_1.readEnergy           126308192220                       # Energy for read commands per rank (pJ)
system.mem_ctrls1_1.writeEnergy             144061560                       # Energy for write commands per rank (pJ)
system.mem_ctrls1_1.refreshEnergy        857599816320.000244                       # Energy for refresh commands per rank (pJ)
system.mem_ctrls1_1.actBackEnergy        510727514880                       # Energy for active background per rank (pJ)
system.mem_ctrls1_1.preBackEnergy         19134420960                       # Energy for precharge background per rank (pJ)
system.mem_ctrls1_1.actPowerDownEnergy   4248774207660                       # Energy for active power-down per rank (pJ)
system.mem_ctrls1_1.prePowerDownEnergy   144479690880                       # Energy for precharge power-down per rank (pJ)
system.mem_ctrls1_1.selfRefreshEnergy        79386165                       # Energy for self refresh per rank (pJ)
system.mem_ctrls1_1.totalEnergy          6100632657105                       # Total energy per rank (pJ)
system.mem_ctrls1_1.averagePower           561.558096                       # Core power per rank (mW)
system.mem_ctrls1_1.totalIdleTime        9693667770700                       # Total Idle time Per DRAM Rank
system.mem_ctrls1_1.memoryStateTime::IDLE   8218805902                       # Time in different power states
system.mem_ctrls1_1.memoryStateTime::REF 362775111457                       # Time in different power states
system.mem_ctrls1_1.memoryStateTime::SREF    177521782                       # Time in different power states
system.mem_ctrls1_1.memoryStateTime::PRE_PDN 376599876642                       # Time in different power states
system.mem_ctrls1_1.memoryStateTime::ACT 799098631230                       # Time in different power states
system.mem_ctrls1_1.memoryStateTime::ACT_PDN 9316890372276                       # Time in different power states
system.pwrStateResidencyTicks::UNDEFINED 172945943481789                       # Cumulative time (in ticks) in various power states
system.cpu.branchPred.lookups                      12                       # Number of BP lookups
system.cpu.branchPred.condPredicted                12                       # Number of conditional branches predicted
system.cpu.branchPred.condIncorrect                 4                       # Number of conditional branches incorrect
system.cpu.branchPred.BTBLookups                    0                       # Number of BTB lookups
system.cpu.branchPred.BTBHits                       0                       # Number of BTB hits
system.cpu.branchPred.BTBCorrect                    0                       # Number of correct BTB predictions (this stat may not work properly.
system.cpu.branchPred.BTBHitPct                   nan                       # BTB Hit Percentage
system.cpu.branchPred.usedRAS                       0                       # Number of times the RAS was used to get a target.
system.cpu.branchPred.RASInCorrect                  0                       # Number of incorrect RAS predictions.
system.cpu.branchPred.indirectLookups               0                       # Number of indirect predictor lookups.
system.cpu.branchPred.indirectHits                  0                       # Number of indirect target hits.
system.cpu.branchPred.indirectMisses                0                       # Number of indirect misses.
system.cpu.branchPredindirectMispredicted            0                       # Number of mispredicted indirect branches.
system.cpu_voltage_domain.voltage                   1                       # Voltage in Volts
system.cpu_clk_domain.clock                       333                       # Clock period in ticks
system.cpu.dtb.fetch_hits                           0                       # ITB hits
system.cpu.dtb.fetch_misses                         0                       # ITB misses
system.cpu.dtb.fetch_acv                            0                       # ITB acv
system.cpu.dtb.fetch_accesses                       0                       # ITB accesses
system.cpu.dtb.read_hits                            1                       # DTB read hits
system.cpu.dtb.read_misses                         11                       # DTB read misses
system.cpu.dtb.read_acv                             0                       # DTB read access violations
system.cpu.dtb.read_accesses                       12                       # DTB read accesses
system.cpu.dtb.write_hits                           0                       # DTB write hits
system.cpu.dtb.write_misses                         0                       # DTB write misses
system.cpu.dtb.write_acv                            0                       # DTB write access violations
system.cpu.dtb.write_accesses                       0                       # DTB write accesses
system.cpu.dtb.data_hits                            1                       # DTB hits
system.cpu.dtb.data_misses                         11                       # DTB misses
system.cpu.dtb.data_acv                             0                       # DTB access violations
system.cpu.dtb.data_accesses                       12                       # DTB accesses
system.cpu.itb.fetch_hits                          12                       # ITB hits
system.cpu.itb.fetch_misses                         0                       # ITB misses
system.cpu.itb.fetch_acv                            0                       # ITB acv
system.cpu.itb.fetch_accesses                      12                       # ITB accesses
system.cpu.itb.read_hits                            0                       # DTB read hits
system.cpu.itb.read_misses                          0                       # DTB read misses
system.cpu.itb.read_acv                             0                       # DTB read access violations
system.cpu.itb.read_accesses                        0                       # DTB read accesses
system.cpu.itb.write_hits                           0                       # DTB write hits
system.cpu.itb.write_misses                         0                       # DTB write misses
system.cpu.itb.write_acv                            0                       # DTB write access violations
system.cpu.itb.write_accesses                       0                       # DTB write accesses
system.cpu.itb.data_hits                            0                       # DTB hits
system.cpu.itb.data_misses                          0                       # DTB misses
system.cpu.itb.data_acv                             0                       # DTB access violations
system.cpu.itb.data_accesses                        0                       # DTB accesses
system.cpu.workload.num_syscalls                    0                       # Number of system calls
system.cpu.pwrStateResidencyTicks::ON    10863760319289                       # Cumulative time (in ticks) in various power states
system.cpu.numCycles                              600                       # number of cpu cycles simulated
system.cpu.numWorkItemsStarted                      0                       # number of work items this cpu started
system.cpu.numWorkItemsCompleted                    0                       # number of work items this cpu completed
[...]
system.switch_cpus_1.iq.FU_type_0::total   1853048952                       # Type of FU issued
system.switch_cpus_1.iq.rate                 0.315420                       # Inst issue rate
system.switch_cpus_1.iq.fu_busy_cnt              4336                       # FU busy when requested
system.switch_cpus_1.iq.fu_busy_rate         0.000002                       # FU busy rate (busy events/executed inst)
system.switch_cpus_1.iq.int_inst_queue_reads   9580969048                       # Number of integer instruction queue reads
system.switch_cpus_1.iq.int_inst_queue_writes   6295216392                       # Number of integer instruction queue writes
system.switch_cpus_1.iq.int_inst_queue_wakeup_accesses   1164621788                       # Number of integer instruction queue wakeup accesses
system.switch_cpus_1.iq.fp_inst_queue_reads            0                       # Number of floating instruction queue reads
system.switch_cpus_1.iq.fp_inst_queue_writes            0                       # Number of floating instruction queue writes
system.switch_cpus_1.iq.fp_inst_queue_wakeup_accesses            0                       # Number of floating instruction queue wakeup accesses
system.switch_cpus_1.iq.int_alu_accesses   1853053288                       # Number of integer alu accesses
system.switch_cpus_1.iq.fp_alu_accesses             0                       # Number of floating point alu accesses
system.switch_cpus_1.iew.lsq.thread0.forwLoads          938                       # Number of loads that had data forwarded from stores
system.switch_cpus_1.iew.lsq.thread0.invAddrLoads            0                       # Number of loads ignored due to an invalid address
system.switch_cpus_1.iew.lsq.thread0.squashedLoads   1003942020                       # Number of loads squashed
system.switch_cpus_1.iew.lsq.thread0.ignoredResponses           21                       # Number of memory responses ignored because the instruction is squashed
system.switch_cpus_1.iew.lsq.thread0.memOrderViolation           39                       # Number of memory ordering violations
system.switch_cpus_1.iew.lsq.thread0.squashedStores       136046                       # Number of stores squashed
system.switch_cpus_1.iew.lsq.thread0.invAddrSwpfs            0                       # Number of software prefetches ignored due to an invalid address
system.switch_cpus_1.iew.lsq.thread0.blockedLoads            0                       # Number of blocked loads due to partial load-store forwarding
system.switch_cpus_1.iew.lsq.thread0.rescheduledLoads            0                       # Number of loads that were rescheduled
system.switch_cpus_1.iew.lsq.thread0.cacheBlocked         7622                       # Number of times an access to memory failed due to the cache being blocked
system.switch_cpus_1.iew.iewIdleCycles              0                       # Number of cycles IEW is idle
system.switch_cpus_1.iew.iewSquashCycles     33186487                       # Number of cycles IEW is squashing
system.switch_cpus_1.iew.iewBlockCycles    4739279538                       # Number of cycles IEW is blocking
system.switch_cpus_1.iew.iewUnblockCycles     39485858                       # Number of cycles IEW is unblocking
system.switch_cpus_1.iew.iewDispatchedInsts   3247626837                       # Number of instructions dispatched to IQ
system.switch_cpus_1.iew.iewDispSquashedInsts         4514                       # Number of squashed instructions skipped by dispatch
system.switch_cpus_1.iew.iewDispLoadInsts   1068196201                       # Number of dispatched load instructions
system.switch_cpus_1.iew.iewDispStoreInsts       148373                       # Number of dispatched store instructions
system.switch_cpus_1.iew.iewDispNonSpecInsts            0                       # Number of dispatched non-speculative instructions
system.switch_cpus_1.iew.iewIQFullEvents     19164611                       # Number of times the IQ has become full, causing a stall
system.switch_cpus_1.iew.iewLSQFullEvents      3561438                       # Number of times the LSQ has become full, causing a stall
system.switch_cpus_1.iew.memOrderViolationEvents           39                       # Number of memory order violations
system.switch_cpus_1.iew.predictedTakenIncorrect      1685447                       # Number of branches that were predicted taken incorrectly
system.switch_cpus_1.iew.predictedNotTakenIncorrect      2830403                       # Number of branches that were predicted not taken incorrectly
system.switch_cpus_1.iew.branchMispredicts      4515850                       # Number of branch mispredicts detected at execute
system.switch_cpus_1.iew.iewExecutedInsts   1848759833                       # Number of executed instructions
system.switch_cpus_1.iew.iewExecLoadInsts    748470649                       # Number of load instructions executed
system.switch_cpus_1.iew.iewExecSquashedInsts      4289117                       # Number of squashed instructions skipped in execute
system.switch_cpus_1.iew.exec_swp                   0                       # number of swp insts executed
system.switch_cpus_1.iew.exec_nop               18612                       # number of nop insts executed
system.switch_cpus_1.iew.exec_refs          748493053                       # number of memory reference insts executed
system.switch_cpus_1.iew.exec_branches      219693142                       # Number of branches executed
system.switch_cpus_1.iew.exec_stores            22404                       # Number of stores executed
system.switch_cpus_1.iew.exec_rate           0.314690                       # Inst execution rate
system.switch_cpus_1.iew.wb_sent           1847845176                       # cumulative count of insts sent to commit
system.switch_cpus_1.iew.wb_count          1164621788                       # cumulative count of insts written-back
system.switch_cpus_1.iew.wb_producers       670480076                       # num instructions producing a value
system.switch_cpus_1.iew.wb_consumers       923375340                       # num instructions consuming a value
system.switch_cpus_1.iew.wb_rate             0.198238                       # insts written-back per cycle
system.switch_cpus_1.iew.wb_fanout           0.726119                       # average fanout of values written-back
system.switch_cpus_1.commit.commitSquashedInsts   2815339099                       # The number of squashed insts skipped by commit
system.switch_cpus_1.commit.branchMispredicts      4333606                       # The number of times a branch was mispredicted
system.switch_cpus_1.commit.committed_per_cycle::samples   5510344358                       # Number of insts commited each cycle
system.switch_cpus_1.commit.committed_per_cycle::mean     0.036296                       # Number of insts commited each cycle
system.switch_cpus_1.commit.committed_per_cycle::stdev     0.356469                       # Number of insts commited each cycle
system.switch_cpus_1.commit.committed_per_cycle::underflows            0      0.00%      0.00% # Number of insts commited each cycle
system.switch_cpus_1.commit.committed_per_cycle::0   5408014671     98.14%     98.14% # Number of insts commited each cycle
system.switch_cpus_1.commit.committed_per_cycle::1     55554192      1.01%     99.15% # Number of insts commited each cycle
system.switch_cpus_1.commit.committed_per_cycle::2     32104220      0.58%     99.73% # Number of insts commited each cycle
system.switch_cpus_1.commit.committed_per_cycle::3      6061990      0.11%     99.84% # Number of insts commited each cycle
system.switch_cpus_1.commit.committed_per_cycle::4      1675009      0.03%     99.87% # Number of insts commited each cycle
system.switch_cpus_1.commit.committed_per_cycle::5        24648      0.00%     99.87% # Number of insts commited each cycle
system.switch_cpus_1.commit.committed_per_cycle::6         3202      0.00%     99.87% # Number of insts commited each cycle
system.switch_cpus_1.commit.committed_per_cycle::7        40769      0.00%     99.88% # Number of insts commited each cycle
system.switch_cpus_1.commit.committed_per_cycle::8      6865657      0.12%    100.00% # Number of insts commited each cycle
system.switch_cpus_1.commit.committed_per_cycle::overflows            0      0.00%    100.00% # Number of insts commited each cycle
system.switch_cpus_1.commit.committed_per_cycle::min_value            0                       # Number of insts commited each cycle
system.switch_cpus_1.commit.committed_per_cycle::max_value            8                       # Number of insts commited each cycle
system.switch_cpus_1.commit.committed_per_cycle::total   5510344358                       # Number of insts commited each cycle
system.switch_cpus_1.commit.committedInsts    200001729                       # Number of instructions committed
system.switch_cpus_1.commit.committedOps    200001729                       # Number of ops (including micro ops) committed
system.switch_cpus_1.commit.swp_count               0                       # Number of s/w prefetches committed
system.switch_cpus_1.commit.refs             64266478                       # Number of memory references committed
system.switch_cpus_1.commit.loads            64254151                       # Number of loads committed
system.switch_cpus_1.commit.membars                 0                       # Number of memory barriers committed
system.switch_cpus_1.commit.branches         49624817                       # Number of branches committed
system.switch_cpus_1.commit.fp_insts                0                       # Number of committed floating point instructions.
system.switch_cpus_1.commit.int_insts       199961763                       # Number of committed integer instructions.
system.switch_cpus_1.commit.function_calls          438                       # Number of function calls committed.
system.switch_cpus_1.commit.op_class_0::No_OpClass         1722      0.00%      0.00% # Class of committed instruction
system.switch_cpus_1.commit.op_class_0::IntAlu    135733506     67.87%     67.87% # Class of committed instruction
system.switch_cpus_1.commit.op_class_0::IntMult           23      0.00%     67.87% # Class of committed instruction
system.switch_cpus_1.commit.op_class_0::IntDiv            0      0.00%     67.87% # Class of committed instruction
system.switch_cpus_1.commit.op_class_0::FloatAdd            0      0.00%     67.87% # Class of committed instruction
system.switch_cpus_1.commit.op_class_0::FloatCmp            0      0.00%     67.87% # Class of committed instruction
system.switch_cpus_1.commit.op_class_0::FloatCvt            0      0.00%     67.87% # Class of committed instruction
system.switch_cpus_1.commit.op_class_0::FloatMult            0      0.00%     67.87% # Class of committed instruction
system.switch_cpus_1.commit.op_class_0::FloatMultAcc            0      0.00%     67.87% # Class of committed instruction
system.switch_cpus_1.commit.op_class_0::FloatDiv            0      0.00%     67.87% # Class of committed instruction
system.switch_cpus_1.commit.op_class_0::FloatMisc            0      0.00%     67.87% # Class of committed instruction
system.switch_cpus_1.commit.op_class_0::FloatSqrt            0      0.00%     67.87% # Class of committed instruction
system.switch_cpus_1.commit.op_class_0::SimdAdd            0      0.00%     67.87% # Class of committed instruction
system.switch_cpus_1.commit.op_class_0::SimdAddAcc            0      0.00%     67.87% # Class of committed instruction
system.switch_cpus_1.commit.op_class_0::SimdAlu            0      0.00%     67.87% # Class of committed instruction
system.switch_cpus_1.commit.op_class_0::SimdCmp            0      0.00%     67.87% # Class of committed instruction
system.switch_cpus_1.commit.op_class_0::SimdCvt            0      0.00%     67.87% # Class of committed instruction
system.switch_cpus_1.commit.op_class_0::SimdMisc            0      0.00%     67.87% # Class of committed instruction
system.switch_cpus_1.commit.op_class_0::SimdMult            0      0.00%     67.87% # Class of committed instruction
system.switch_cpus_1.commit.op_class_0::SimdMultAcc            0      0.00%     67.87% # Class of committed instruction
system.switch_cpus_1.commit.op_class_0::SimdShift            0      0.00%     67.87% # Class of committed instruction
system.switch_cpus_1.commit.op_class_0::SimdShiftAcc            0      0.00%     67.87% # Class of committed instruction
system.switch_cpus_1.commit.op_class_0::SimdSqrt            0      0.00%     67.87% # Class of committed instruction
system.switch_cpus_1.commit.op_class_0::SimdFloatAdd            0      0.00%     67.87% # Class of committed instruction
system.switch_cpus_1.commit.op_class_0::SimdFloatAlu            0      0.00%     67.87% # Class of committed instruction
system.switch_cpus_1.commit.op_class_0::SimdFloatCmp            0      0.00%     67.87% # Class of committed instruction
system.switch_cpus_1.commit.op_class_0::SimdFloatCvt            0      0.00%     67.87% # Class of committed instruction
system.switch_cpus_1.commit.op_class_0::SimdFloatDiv            0      0.00%     67.87% # Class of committed instruction
system.switch_cpus_1.commit.op_class_0::SimdFloatMisc            0      0.00%     67.87% # Class of committed instruction
system.switch_cpus_1.commit.op_class_0::SimdFloatMult            0      0.00%     67.87% # Class of committed instruction
system.switch_cpus_1.commit.op_class_0::SimdFloatMultAcc            0      0.00%     67.87% # Class of committed instruction
system.switch_cpus_1.commit.op_class_0::SimdFloatSqrt            0      0.00%     67.87% # Class of committed instruction
system.switch_cpus_1.commit.op_class_0::MemRead     64254151     32.13%     99.99% # Class of committed instruction
system.switch_cpus_1.commit.op_class_0::MemWrite        12327      0.01%    100.00% # Class of committed instruction
system.switch_cpus_1.commit.op_class_0::FloatMemRead            0      0.00%    100.00% # Class of committed instruction
system.switch_cpus_1.commit.op_class_0::FloatMemWrite            0      0.00%    100.00% # Class of committed instruction
system.switch_cpus_1.commit.op_class_0::IprAccess            0      0.00%    100.00% # Class of committed instruction
system.switch_cpus_1.commit.op_class_0::InstPrefetch            0      0.00%    100.00% # Class of committed instruction
system.switch_cpus_1.commit.op_class_0::total    200001729                       # Class of committed instruction
system.switch_cpus_1.commit.bw_lim_events      6865657                       # number cycles where commit BW limit reached
system.switch_cpus_1.rob.rob_reads         8143732518                       # The number of ROB reads
system.switch_cpus_1.rob.rob_writes        6395203771                       # The number of ROB writes
system.switch_cpus_1.timesIdled                    11                       # Number of times that the entire CPU went into an idle state and unscheduled itself
system.switch_cpus_1.idleCycles                   574                       # Total number of cycles that the CPU has spent unscheduled due to idling
system.switch_cpus_1.committedInsts         200000007                       # Number of Instructions Simulated
system.switch_cpus_1.committedOps           200000007                       # Number of Ops (including micro ops) Simulated
system.switch_cpus_1.cpi                    29.374333                       # CPI: Cycles Per Instruction
system.switch_cpus_1.cpi_total              29.374333                       # CPI: Total CPI of All Threads
system.switch_cpus_1.ipc                     0.034043                       # IPC: Instructions Per Cycle
system.switch_cpus_1.ipc_total               0.034043                       # IPC: Total IPC of All Threads
system.switch_cpus_1.int_regfile_reads     2716816081                       # number of integer regfile reads
system.switch_cpus_1.int_regfile_writes     944935690                       # number of integer regfile writes
system.switch_cpus_1.fp_regfile_writes             32                       # number of floating regfile writes
system.tol3bus.snoop_filter.tot_requests    284833236                       # Total number of requests made to the snoop filter.
system.tol3bus.snoop_filter.hit_single_requests    142414712                       # Number of requests hitting in the snoop filter with a single holder of the requested data.
system.tol3bus.snoop_filter.hit_multi_requests            0                       # Number of requests hitting in the snoop filter with multiple (>1) holders of the requested data.
system.tol3bus.snoop_filter.tot_snoops         148544                       # Total number of snoops made to the snoop filter.
system.tol3bus.snoop_filter.hit_single_snoops       148544                       # Number of snoops hitting in the snoop filter with a single holder of the requested data.
system.tol3bus.snoop_filter.hit_multi_snoops            0                       # Number of snoops hitting in the snoop filter with multiple (>1) holders of the requested data.
system.tol3bus.pwrStateResidencyTicks::UNDEFINED 172945943481789                       # Cumulative time (in ticks) in various power states
system.tol3bus.trans_dist::ReadResp         142404666                       # Transaction distribution
system.tol3bus.trans_dist::WritebackDirty      4600532                       # Transaction distribution
system.tol3bus.trans_dist::CleanEvict       208539846                       # Transaction distribution
system.tol3bus.trans_dist::ReadExReq            13858                       # Transaction distribution
system.tol3bus.trans_dist::ReadExResp           13858                       # Transaction distribution
system.tol3bus.trans_dist::ReadSharedReq    142404666                       # Transaction distribution
system.tol3bus.pkt_count_system.cpu.l2.mem_side::system.l3.cpu_side    427251760                       # Packet count per connected master and slave (bytes)
system.tol3bus.pkt_size_system.cpu.l2.mem_side::system.l3.cpu_side   9401917312                       # Cumulative packet size per connected master and slave (bytes)
system.tol3bus.snoops                        70725666                       # Total snoops (count)
system.tol3bus.snoopTraffic                   7302272                       # Total snoop traffic (bytes)
system.tol3bus.snoop_fanout::samples        213144190                       # Request fanout histogram
system.tol3bus.snoop_fanout::mean            0.000697                       # Request fanout histogram
system.tol3bus.snoop_fanout::stdev           0.026390                       # Request fanout histogram
system.tol3bus.snoop_fanout::underflows             0      0.00%      0.00% # Request fanout histogram
system.tol3bus.snoop_fanout::0              212995646     99.93%     99.93% # Request fanout histogram
system.tol3bus.snoop_fanout::1                 148544      0.07%    100.00% # Request fanout histogram
system.tol3bus.snoop_fanout::overflows              0      0.00%    100.00% # Request fanout histogram
system.tol3bus.snoop_fanout::min_value              0                       # Request fanout histogram
system.tol3bus.snoop_fanout::max_value              1                       # Request fanout histogram
system.tol3bus.snoop_fanout::total          213144190                       # Request fanout histogram
system.tol3bus.reqLayer0.occupancy        96343450110                       # Layer occupancy (ticks)
system.tol3bus.reqLayer0.utilization              0.9                       # Layer utilization (%)
system.tol3bus.respLayer0.occupancy       94850736984                       # Layer occupancy (ticks)
system.tol3bus.respLayer0.utilization             0.9                       # Layer utilization (%)

---------- End Simulation Statistics   ----------
