
---------- Begin Simulation Statistics ----------
sim_seconds                                  6.722264                       # Number of seconds simulated
sim_ticks                                6722264025981                       # Number of ticks simulated
final_tick                               26707365385848                       # Number of ticks from beginning of simulation (restored from checkpoints and never reset)
sim_freq                                 1000000000000                       # Frequency of simulated ticks
host_inst_rate                                  91512                       # Simulator instruction rate (inst/s)
host_op_rate                                    91512                       # Simulator op (including micro ops) rate (op/s)
host_tick_rate                              512637911                       # Simulator tick rate (ticks/s)
host_mem_usage                                2453540                       # Number of bytes of host memory used
host_seconds                                 13113.08                       # Real time elapsed on the host
sim_insts                                  1200000007                       # Number of instructions simulated
sim_ops                                    1200000007                       # Number of ops (including micro ops) simulated
system.voltage_domain.voltage                       1                       # Voltage in Volts
system.clk_domain.clock                          1000                       # Clock period in ticks
system.mem_ctrls0.pwrStateResidencyTicks::UNDEFINED 26707365385848                       # Cumulative time (in ticks) in various power states
system.mem_ctrls0.bytes_read::cpu.inst             64                       # Number of bytes read from this memory
system.mem_ctrls0.bytes_read::cpu.data             64                       # Number of bytes read from this memory
system.mem_ctrls0.bytes_read::switch_cpus.inst         1152                       # Number of bytes read from this memory
system.mem_ctrls0.bytes_read::switch_cpus.data   1016933312                       # Number of bytes read from this memory
system.mem_ctrls0.bytes_read::switch_cpus_1.data    203757568                       # Number of bytes read from this memory
system.mem_ctrls0.bytes_read::total        1220692160                       # Number of bytes read from this memory
system.mem_ctrls0.bytes_inst_read::cpu.inst           64                       # Number of instructions bytes read from this memory
system.mem_ctrls0.bytes_inst_read::switch_cpus.inst         1152                       # Number of instructions bytes read from this memory
system.mem_ctrls0.bytes_inst_read::total         1216                       # Number of instructions bytes read from this memory
system.mem_ctrls0.bytes_written::writebacks    913876480                       # Number of bytes written to this memory
system.mem_ctrls0.bytes_written::total      913876480                       # Number of bytes written to this memory
system.mem_ctrls0.num_reads::cpu.inst               1                       # Number of read requests responded to by this memory
system.mem_ctrls0.num_reads::cpu.data               1                       # Number of read requests responded to by this memory
system.mem_ctrls0.num_reads::switch_cpus.inst           18                       # Number of read requests responded to by this memory
system.mem_ctrls0.num_reads::switch_cpus.data     15889583                       # Number of read requests responded to by this memory
system.mem_ctrls0.num_reads::switch_cpus_1.data      3183712                       # Number of read requests responded to by this memory
system.mem_ctrls0.num_reads::total           19073315                       # Number of read requests responded to by this memory
system.mem_ctrls0.num_writes::writebacks     14279320                       # Number of write requests responded to by this memory
system.mem_ctrls0.num_writes::total          14279320                       # Number of write requests responded to by this memory
system.mem_ctrls0.bw_read::cpu.inst                10                       # Total read bandwidth from this memory (bytes/s)
system.mem_ctrls0.bw_read::cpu.data                10                       # Total read bandwidth from this memory (bytes/s)
system.mem_ctrls0.bw_read::switch_cpus.inst          171                       # Total read bandwidth from this memory (bytes/s)
system.mem_ctrls0.bw_read::switch_cpus.data    151278395                       # Total read bandwidth from this memory (bytes/s)
system.mem_ctrls0.bw_read::switch_cpus_1.data     30310855                       # Total read bandwidth from this memory (bytes/s)
system.mem_ctrls0.bw_read::total            181589440                       # Total read bandwidth from this memory (bytes/s)
system.mem_ctrls0.bw_inst_read::cpu.inst           10                       # Instruction read bandwidth from this memory (bytes/s)
system.mem_ctrls0.bw_inst_read::switch_cpus.inst          171                       # Instruction read bandwidth from this memory (bytes/s)
system.mem_ctrls0.bw_inst_read::total             181                       # Instruction read bandwidth from this memory (bytes/s)
system.mem_ctrls0.bw_write::writebacks      135947722                       # Write bandwidth from this memory (bytes/s)
system.mem_ctrls0.bw_write::total           135947722                       # Write bandwidth from this memory (bytes/s)
system.mem_ctrls0.bw_total::writebacks      135947722                       # Total bandwidth to/from this memory (bytes/s)
system.mem_ctrls0.bw_total::cpu.inst               10                       # Total bandwidth to/from this memory (bytes/s)
system.mem_ctrls0.bw_total::cpu.data               10                       # Total bandwidth to/from this memory (bytes/s)
system.mem_ctrls0.bw_total::switch_cpus.inst          171                       # Total bandwidth to/from this memory (bytes/s)
system.mem_ctrls0.bw_total::switch_cpus.data    151278395                       # Total bandwidth to/from this memory (bytes/s)
system.mem_ctrls0.bw_total::switch_cpus_1.data     30310855                       # Total bandwidth to/from this memory (bytes/s)
system.mem_ctrls0.bw_total::total           317537162                       # Total bandwidth to/from this memory (bytes/s)
system.mem_ctrls0.readReqs                   19073315                       # Number of read requests accepted
system.mem_ctrls0.writeReqs                  14279320                       # Number of write requests accepted
system.mem_ctrls0.readBursts                 19073315                       # Number of DRAM read bursts, including those serviced by the write queue
system.mem_ctrls0.writeBursts                14279320                       # Number of DRAM write bursts, including those merged in the write queue
system.mem_ctrls0.bytesReadDRAM            1220692160                       # Total number of bytes read from DRAM
system.mem_ctrls0.bytesReadWrQ                      0                       # Total number of bytes read from write queue
system.mem_ctrls0.bytesWritten              913874560                       # Total number of bytes written to DRAM
system.mem_ctrls0.bytesReadSys             1220692160                       # Total read bytes from the system interface side
system.mem_ctrls0.bytesWrittenSys           913876480                       # Total written bytes from the system interface side
system.mem_ctrls0.servicedByWrQ                     0                       # Number of DRAM read bursts serviced by the write queue
system.mem_ctrls0.mergedWrBursts                    0                       # Number of DRAM write bursts merged with an existing one
system.mem_ctrls0.neitherReadNorWriteReqs            0                       # Number of requests that are neither read nor write
system.mem_ctrls0.perBankRdBursts::0          1191229                       # Per bank write bursts
system.mem_ctrls0.perBankRdBursts::1          1191361                       # Per bank write bursts
system.mem_ctrls0.perBankRdBursts::2          1191651                       # Per bank write bursts
system.mem_ctrls0.perBankRdBursts::3          1192005                       # Per bank write bursts
system.mem_ctrls0.perBankRdBursts::4          1192386                       # Per bank write bursts
system.mem_ctrls0.perBankRdBursts::5          1192650                       # Per bank write bursts
system.mem_ctrls0.perBankRdBursts::6          1192812                       # Per bank write bursts
system.mem_ctrls0.perBankRdBursts::7          1192960                       # Per bank write bursts
system.mem_ctrls0.perBankRdBursts::8          1192969                       # Per bank write bursts
system.mem_ctrls0.perBankRdBursts::9          1192782                       # Per bank write bursts
system.mem_ctrls0.perBankRdBursts::10         1192429                       # Per bank write bursts
system.mem_ctrls0.perBankRdBursts::11         1192092                       # Per bank write bursts
system.mem_ctrls0.perBankRdBursts::12         1192403                       # Per bank write bursts
system.mem_ctrls0.perBankRdBursts::13         1191276                       # Per bank write bursts
system.mem_ctrls0.perBankRdBursts::14         1191150                       # Per bank write bursts
system.mem_ctrls0.perBankRdBursts::15         1191160                       # Per bank write bursts
system.mem_ctrls0.perBankWrBursts::0           891946                       # Per bank write bursts
system.mem_ctrls0.perBankWrBursts::1           892074                       # Per bank write bursts
system.mem_ctrls0.perBankWrBursts::2           892259                       # Per bank write bursts
system.mem_ctrls0.perBankWrBursts::3           892437                       # Per bank write bursts
system.mem_ctrls0.perBankWrBursts::4           892738                       # Per bank write bursts
system.mem_ctrls0.perBankWrBursts::5           892914                       # Per bank write bursts
system.mem_ctrls0.perBankWrBursts::6           893013                       # Per bank write bursts
system.mem_ctrls0.perBankWrBursts::7           893107                       # Per bank write bursts
system.mem_ctrls0.perBankWrBursts::8           893061                       # Per bank write bursts
system.mem_ctrls0.perBankWrBursts::9           892838                       # Per bank write bursts
system.mem_ctrls0.perBankWrBursts::10          892618                       # Per bank write bursts
system.mem_ctrls0.perBankWrBursts::11          892452                       # Per bank write bursts
system.mem_ctrls0.perBankWrBursts::12          892150                       # Per bank write bursts
system.mem_ctrls0.perBankWrBursts::13          891935                       # Per bank write bursts
system.mem_ctrls0.perBankWrBursts::14          891852                       # Per bank write bursts
system.mem_ctrls0.perBankWrBursts::15          891896                       # Per bank write bursts
system.mem_ctrls0.numRdRetry                        0                       # Number of times read queue was full causing retry
system.mem_ctrls0.numWrRetry                        0                       # Number of times write queue was full causing retry
system.mem_ctrls0.totGap                 6722263840833                       # Total gap between requests
system.mem_ctrls0.readPktSize::0                    0                       # Read request sizes (log2)
system.mem_ctrls0.readPktSize::1                    0                       # Read request sizes (log2)
system.mem_ctrls0.readPktSize::2                    0                       # Read request sizes (log2)
system.mem_ctrls0.readPktSize::3                    0                       # Read request sizes (log2)
system.mem_ctrls0.readPktSize::4                    0                       # Read request sizes (log2)
system.mem_ctrls0.readPktSize::5                    0                       # Read request sizes (log2)
system.mem_ctrls0.readPktSize::6             19073315                       # Read request sizes (log2)
system.mem_ctrls0.writePktSize::0                   0                       # Write request sizes (log2)
system.mem_ctrls0.writePktSize::1                   0                       # Write request sizes (log2)
system.mem_ctrls0.writePktSize::2                   0                       # Write request sizes (log2)
system.mem_ctrls0.writePktSize::3                   0                       # Write request sizes (log2)
system.mem_ctrls0.writePktSize::4                   0                       # Write request sizes (log2)
system.mem_ctrls0.writePktSize::5                   0                       # Write request sizes (log2)
system.mem_ctrls0.writePktSize::6            14279320                       # Write request sizes (log2)
system.mem_ctrls0.rdQLenPdf::0               17916377                       # What read queue length does an incoming req see
system.mem_ctrls0.rdQLenPdf::1                 892387                       # What read queue length does an incoming req see
system.mem_ctrls0.rdQLenPdf::2                 249553                       # What read queue length does an incoming req see
system.mem_ctrls0.rdQLenPdf::3                  14998                       # What read queue length does an incoming req see
system.mem_ctrls0.rdQLenPdf::4                      0                       # What read queue length does an incoming req see
system.mem_ctrls0.rdQLenPdf::5                      0                       # What read queue length does an incoming req see
system.mem_ctrls0.rdQLenPdf::6                      0                       # What read queue length does an incoming req see
system.mem_ctrls0.rdQLenPdf::7                      0                       # What read queue length does an incoming req see
system.mem_ctrls0.rdQLenPdf::8                      0                       # What read queue length does an incoming req see
system.mem_ctrls0.rdQLenPdf::9                      0                       # What read queue length does an incoming req see
system.mem_ctrls0.rdQLenPdf::10                     0                       # What read queue length does an incoming req see
system.mem_ctrls0.rdQLenPdf::11                     0                       # What read queue length does an incoming req see
system.mem_ctrls0.rdQLenPdf::12                     0                       # What read queue length does an incoming req see
system.mem_ctrls0.rdQLenPdf::13                     0                       # What read queue length does an incoming req see
system.mem_ctrls0.rdQLenPdf::14                     0                       # What read queue length does an incoming req see
system.mem_ctrls0.rdQLenPdf::15                     0                       # What read queue length does an incoming req see
system.mem_ctrls0.rdQLenPdf::16                     0                       # What read queue length does an incoming req see
system.mem_ctrls0.rdQLenPdf::17                     0                       # What read queue length does an incoming req see
system.mem_ctrls0.rdQLenPdf::18                     0                       # What read queue length does an incoming req see
system.mem_ctrls0.rdQLenPdf::19                     0                       # What read queue length does an incoming req see
system.mem_ctrls0.rdQLenPdf::20                     0                       # What read queue length does an incoming req see
system.mem_ctrls0.rdQLenPdf::21                     0                       # What read queue length does an incoming req see
system.mem_ctrls0.rdQLenPdf::22                     0                       # What read queue length does an incoming req see
system.mem_ctrls0.rdQLenPdf::23                     0                       # What read queue length does an incoming req see
system.mem_ctrls0.rdQLenPdf::24                     0                       # What read queue length does an incoming req see
system.mem_ctrls0.rdQLenPdf::25                     0                       # What read queue length does an incoming req see
system.mem_ctrls0.rdQLenPdf::26                     0                       # What read queue length does an incoming req see
system.mem_ctrls0.rdQLenPdf::27                     0                       # What read queue length does an incoming req see
system.mem_ctrls0.rdQLenPdf::28                     0                       # What read queue length does an incoming req see
system.mem_ctrls0.rdQLenPdf::29                     0                       # What read queue length does an incoming req see
system.mem_ctrls0.rdQLenPdf::30                     0                       # What read queue length does an incoming req see
system.mem_ctrls0.rdQLenPdf::31                     0                       # What read queue length does an incoming req see
system.mem_ctrls0.wrQLenPdf::0                      2                       # What write queue length does an incoming req see
system.mem_ctrls0.wrQLenPdf::1                      2                       # What write queue length does an incoming req see
system.mem_ctrls0.wrQLenPdf::2                      2                       # What write queue length does an incoming req see
system.mem_ctrls0.wrQLenPdf::3                      2                       # What write queue length does an incoming req see
system.mem_ctrls0.wrQLenPdf::4                      2                       # What write queue length does an incoming req see
system.mem_ctrls0.wrQLenPdf::5                      2                       # What write queue length does an incoming req see
system.mem_ctrls0.wrQLenPdf::6                      2                       # What write queue length does an incoming req see
system.mem_ctrls0.wrQLenPdf::7                      2                       # What write queue length does an incoming req see
system.mem_ctrls0.wrQLenPdf::8                      2                       # What write queue length does an incoming req see
system.mem_ctrls0.wrQLenPdf::9                      2                       # What write queue length does an incoming req see
system.mem_ctrls0.wrQLenPdf::10                     2                       # What write queue length does an incoming req see
system.mem_ctrls0.wrQLenPdf::11                     2                       # What write queue length does an incoming req see
system.mem_ctrls0.wrQLenPdf::12                     2                       # What write queue length does an incoming req see
system.mem_ctrls0.wrQLenPdf::13                     2                       # What write queue length does an incoming req see
system.mem_ctrls0.wrQLenPdf::14                     2                       # What write queue length does an incoming req see
system.mem_ctrls0.wrQLenPdf::15                575952                       # What write queue length does an incoming req see
system.mem_ctrls0.wrQLenPdf::16                590810                       # What write queue length does an incoming req see
system.mem_ctrls0.wrQLenPdf::17                785686                       # What write queue length does an incoming req see
system.mem_ctrls0.wrQLenPdf::18                815342                       # What write queue length does an incoming req see
system.mem_ctrls0.wrQLenPdf::19                822284                       # What write queue length does an incoming req see
system.mem_ctrls0.wrQLenPdf::20                822633                       # What write queue length does an incoming req see
system.mem_ctrls0.wrQLenPdf::21                831473                       # What write queue length does an incoming req see
system.mem_ctrls0.wrQLenPdf::22                823596                       # What write queue length does an incoming req see
system.mem_ctrls0.wrQLenPdf::23                832594                       # What write queue length does an incoming req see
system.mem_ctrls0.wrQLenPdf::24                821061                       # What write queue length does an incoming req see
system.mem_ctrls0.wrQLenPdf::25                821404                       # What write queue length does an incoming req see
system.mem_ctrls0.wrQLenPdf::26                822307                       # What write queue length does an incoming req see
system.mem_ctrls0.wrQLenPdf::27                822665                       # What write queue length does an incoming req see
system.mem_ctrls0.wrQLenPdf::28                818950                       # What write queue length does an incoming req see
system.mem_ctrls0.wrQLenPdf::29                819303                       # What write queue length does an incoming req see
system.mem_ctrls0.wrQLenPdf::30                818768                       # What write queue length does an incoming req see
system.mem_ctrls0.wrQLenPdf::31                816205                       # What write queue length does an incoming req see
system.mem_ctrls0.wrQLenPdf::32                816201                       # What write queue length does an incoming req see
system.mem_ctrls0.wrQLenPdf::33                  1791                       # What write queue length does an incoming req see
system.mem_ctrls0.wrQLenPdf::34                   234                       # What write queue length does an incoming req see
system.mem_ctrls0.wrQLenPdf::35                    30                       # What write queue length does an incoming req see
system.mem_ctrls0.wrQLenPdf::36                     1                       # What write queue length does an incoming req see
system.mem_ctrls0.wrQLenPdf::37                     0                       # What write queue length does an incoming req see
system.mem_ctrls0.wrQLenPdf::38                     0                       # What write queue length does an incoming req see
system.mem_ctrls0.wrQLenPdf::39                     0                       # What write queue length does an incoming req see
system.mem_ctrls0.wrQLenPdf::40                     0                       # What write queue length does an incoming req see
system.mem_ctrls0.wrQLenPdf::41                     0                       # What write queue length does an incoming req see
system.mem_ctrls0.wrQLenPdf::42                     0                       # What write queue length does an incoming req see
system.mem_ctrls0.wrQLenPdf::43                     0                       # What write queue length does an incoming req see
system.mem_ctrls0.wrQLenPdf::44                     0                       # What write queue length does an incoming req see
system.mem_ctrls0.wrQLenPdf::45                     0                       # What write queue length does an incoming req see
system.mem_ctrls0.wrQLenPdf::46                     0                       # What write queue length does an incoming req see
system.mem_ctrls0.wrQLenPdf::47                     0                       # What write queue length does an incoming req see
system.mem_ctrls0.wrQLenPdf::48                     0                       # What write queue length does an incoming req see
system.mem_ctrls0.wrQLenPdf::49                     0                       # What write queue length does an incoming req see
system.mem_ctrls0.wrQLenPdf::50                     0                       # What write queue length does an incoming req see
system.mem_ctrls0.wrQLenPdf::51                     0                       # What write queue length does an incoming req see
system.mem_ctrls0.wrQLenPdf::52                     0                       # What write queue length does an incoming req see
system.mem_ctrls0.wrQLenPdf::53                     0                       # What write queue length does an incoming req see
system.mem_ctrls0.wrQLenPdf::54                     0                       # What write queue length does an incoming req see
system.mem_ctrls0.wrQLenPdf::55                     0                       # What write queue length does an incoming req see
system.mem_ctrls0.wrQLenPdf::56                     0                       # What write queue length does an incoming req see
system.mem_ctrls0.wrQLenPdf::57                     0                       # What write queue length does an incoming req see
system.mem_ctrls0.wrQLenPdf::58                     0                       # What write queue length does an incoming req see
system.mem_ctrls0.wrQLenPdf::59                     0                       # What write queue length does an incoming req see
system.mem_ctrls0.wrQLenPdf::60                     0                       # What write queue length does an incoming req see
system.mem_ctrls0.wrQLenPdf::61                     0                       # What write queue length does an incoming req see
system.mem_ctrls0.wrQLenPdf::62                     0                       # What write queue length does an incoming req see
system.mem_ctrls0.wrQLenPdf::63                     0                       # What write queue length does an incoming req see
system.mem_ctrls0.bytesPerActivate::samples     12871213                       # Bytes accessed per row activation
system.mem_ctrls0.bytesPerActivate::mean   165.840215                       # Bytes accessed per row activation
system.mem_ctrls0.bytesPerActivate::gmean   124.788021                       # Bytes accessed per row activation
system.mem_ctrls0.bytesPerActivate::stdev   155.666041                       # Bytes accessed per row activation
system.mem_ctrls0.bytesPerActivate::0-127      5402031     41.97%     41.97% # Bytes accessed per row activation
system.mem_ctrls0.bytesPerActivate::128-255      5008698     38.91%     80.88% # Bytes accessed per row activation
system.mem_ctrls0.bytesPerActivate::256-383      1245549      9.68%     90.56% # Bytes accessed per row activation
system.mem_ctrls0.bytesPerActivate::384-511       491836      3.82%     94.38% # Bytes accessed per row activation
system.mem_ctrls0.bytesPerActivate::512-639       316612      2.46%     96.84% # Bytes accessed per row activation
system.mem_ctrls0.bytesPerActivate::640-767       206673      1.61%     98.45% # Bytes accessed per row activation
system.mem_ctrls0.bytesPerActivate::768-895       100224      0.78%     99.23% # Bytes accessed per row activation
system.mem_ctrls0.bytesPerActivate::896-1023        51375      0.40%     99.63% # Bytes accessed per row activation
system.mem_ctrls0.bytesPerActivate::1024-1151        48215      0.37%    100.00% # Bytes accessed per row activation
system.mem_ctrls0.bytesPerActivate::total     12871213                       # Bytes accessed per row activation
system.mem_ctrls0.rdPerTurnAround::samples       815739                       # Reads before turning the bus around for writes
system.mem_ctrls0.rdPerTurnAround::mean     23.381618                       # Reads before turning the bus around for writes
system.mem_ctrls0.rdPerTurnAround::gmean    23.118529                       # Reads before turning the bus around for writes
system.mem_ctrls0.rdPerTurnAround::stdev    36.628753                       # Reads before turning the bus around for writes
system.mem_ctrls0.rdPerTurnAround::0-2047       815738    100.00%    100.00% # Reads before turning the bus around for writes
system.mem_ctrls0.rdPerTurnAround::32768-34815            1      0.00%    100.00% # Reads before turning the bus around for writes
system.mem_ctrls0.rdPerTurnAround::total       815739                       # Reads before turning the bus around for writes
system.mem_ctrls0.wrPerTurnAround::samples       815739                       # Writes before turning the bus around for reads
system.mem_ctrls0.wrPerTurnAround::mean     17.504729                       # Writes before turning the bus around for reads
system.mem_ctrls0.wrPerTurnAround::gmean    17.476662                       # Writes before turning the bus around for reads
system.mem_ctrls0.wrPerTurnAround::stdev     0.979215                       # Writes before turning the bus around for reads
system.mem_ctrls0.wrPerTurnAround::16          225227     27.61%     27.61% # Writes before turning the bus around for reads
system.mem_ctrls0.wrPerTurnAround::17           10766      1.32%     28.93% # Writes before turning the bus around for reads
system.mem_ctrls0.wrPerTurnAround::18          528919     64.84%     93.77% # Writes before turning the bus around for reads
system.mem_ctrls0.wrPerTurnAround::19           44706      5.48%     99.25% # Writes before turning the bus around for reads
system.mem_ctrls0.wrPerTurnAround::20            5881      0.72%     99.97% # Writes before turning the bus around for reads
system.mem_ctrls0.wrPerTurnAround::21             228      0.03%    100.00% # Writes before turning the bus around for reads
system.mem_ctrls0.wrPerTurnAround::22              11      0.00%    100.00% # Writes before turning the bus around for reads
system.mem_ctrls0.wrPerTurnAround::30               1      0.00%    100.00% # Writes before turning the bus around for reads
system.mem_ctrls0.wrPerTurnAround::total       815739                       # Writes before turning the bus around for reads
system.mem_ctrls0.totQLat                474878552446                       # Total ticks spent queuing
system.mem_ctrls0.totMemAccLat           832503208696                       # Total ticks spent from burst creation until serviced by the DRAM
system.mem_ctrls0.totBusLat               95366575000                       # Total ticks spent in databus transfers
system.mem_ctrls0.avgQLat                    24897.54                       # Average queueing delay per DRAM burst
system.mem_ctrls0.avgBusLat                   5000.00                       # Average bus latency per DRAM burst
system.mem_ctrls0.avgMemAccLat               43647.54                       # Average memory access latency per DRAM burst
system.mem_ctrls0.avgRdBW                      181.59                       # Average DRAM read bandwidth in MiByte/s
system.mem_ctrls0.avgWrBW                      135.95                       # Average achieved write bandwidth in MiByte/s
system.mem_ctrls0.avgRdBWSys                   181.59                       # Average system read bandwidth in MiByte/s
system.mem_ctrls0.avgWrBWSys                   135.95                       # Average system write bandwidth in MiByte/s
system.mem_ctrls0.peakBW                     12800.00                       # Theoretical peak bandwidth in MiByte/s
system.mem_ctrls0.busUtil                        2.48                       # Data bus utilization in percentage
system.mem_ctrls0.busUtilRead                    1.42                       # Data bus utilization in percentage for reads
system.mem_ctrls0.busUtilWrite                   1.06                       # Data bus utilization in percentage for writes
system.mem_ctrls0.avgRdQLen                      1.03                       # Average read queue length when enqueuing
system.mem_ctrls0.avgWrQLen                     24.73                       # Average write queue length when enqueuing
system.mem_ctrls0.readRowHits                 8905827                       # Number of row buffer hits during reads
system.mem_ctrls0.writeRowHits               11575557                       # Number of row buffer hits during writes
system.mem_ctrls0.readRowHitRate                46.69                       # Row buffer hit rate for reads
system.mem_ctrls0.writeRowHitRate               81.07                       # Row buffer hit rate for writes
system.mem_ctrls0.avgGap                    201551.21                       # Average gap between requests
system.mem_ctrls0.pageHitRate                   61.41                       # Row buffer hit rate, read and write combined
system.mem_ctrls0_0.actEnergy             45948820260                       # Energy for activate commands per rank (pJ)
system.mem_ctrls0_0.preEnergy             24422369565                       # Energy for precharge commands per rank (pJ)
system.mem_ctrls0_0.readEnergy            68094565560                       # Energy for read commands per rank (pJ)
system.mem_ctrls0_0.writeEnergy           37273347360                       # Energy for write commands per rank (pJ)
system.mem_ctrls0_0.refreshEnergy        551810269920.000122                       # Energy for refresh commands per rank (pJ)
system.mem_ctrls0_0.actBackEnergy        590868528780                       # Energy for active background per rank (pJ)
system.mem_ctrls0_0.preBackEnergy         18698549760                       # Energy for precharge background per rank (pJ)
system.mem_ctrls0_0.actPowerDownEnergy   1904819438160                       # Energy for active power-down per rank (pJ)
system.mem_ctrls0_0.prePowerDownEnergy   390283853280                       # Energy for precharge power-down per rank (pJ)
system.mem_ctrls0_0.selfRefreshEnergy     78719075265                       # Energy for self refresh per rank (pJ)
system.mem_ctrls0_0.totalEnergy          3711179998260                       # Total energy per rank (pJ)
system.mem_ctrls0_0.averagePower           552.072914                       # Core power per rank (mW)
system.mem_ctrls0_0.totalIdleTime        5377271171313                       # Total Idle time Per DRAM Rank
system.mem_ctrls0_0.memoryStateTime::IDLE  23021676085                       # Time in different power states
system.mem_ctrls0_0.memoryStateTime::REF 233807966000                       # Time in different power states
system.mem_ctrls0_0.memoryStateTime::SREF 183669349329                       # Time in different power states
system.mem_ctrls0_0.memoryStateTime::PRE_PDN 1016357734974                       # Time in different power states
system.mem_ctrls0_0.memoryStateTime::ACT 1088163212583                       # Time in different power states
system.mem_ctrls0_0.memoryStateTime::ACT_PDN 4177244087010                       # Time in different power states
system.mem_ctrls0_1.actEnergy             45951697680                       # Energy for activate commands per rank (pJ)
system.mem_ctrls0_1.preEnergy             24423883770                       # Energy for precharge commands per rank (pJ)
system.mem_ctrls0_1.readEnergy            68088903540                       # Energy for read commands per rank (pJ)
system.mem_ctrls0_1.writeEnergy           37264546440                       # Energy for write commands per rank (pJ)
system.mem_ctrls0_1.refreshEnergy        551662756320.000122                       # Energy for refresh commands per rank (pJ)
system.mem_ctrls0_1.actBackEnergy        599507507490                       # Energy for active background per rank (pJ)
system.mem_ctrls0_1.preBackEnergy         18653380800                       # Energy for precharge background per rank (pJ)
system.mem_ctrls0_1.actPowerDownEnergy   1902022144920                       # Energy for active power-down per rank (pJ)
system.mem_ctrls0_1.prePowerDownEnergy   386414406720                       # Energy for precharge power-down per rank (pJ)
system.mem_ctrls0_1.selfRefreshEnergy     77744608365                       # Energy for self refresh per rank (pJ)
system.mem_ctrls0_1.totalEnergy          3711950817765                       # Total energy per rank (pJ)
system.mem_ctrls0_1.averagePower           552.187580                       # Core power per rank (mW)
system.mem_ctrls0_1.totalIdleTime        5358493279005                       # Total Idle time Per DRAM Rank
system.mem_ctrls0_1.memoryStateTime::IDLE  22847857616                       # Time in different power states
system.mem_ctrls0_1.memoryStateTime::REF 233740676000                       # Time in different power states
system.mem_ctrls0_1.memoryStateTime::SREF 181106370682                       # Time in different power states
system.mem_ctrls0_1.memoryStateTime::PRE_PDN 1006282649727                       # Time in different power states
system.mem_ctrls0_1.memoryStateTime::ACT 1107182132548                       # Time in different power states
system.mem_ctrls0_1.memoryStateTime::ACT_PDN 4171104339408                       # Time in different power states
system.mem_ctrls1.pwrStateResidencyTicks::UNDEFINED 26707365385848                       # Cumulative time (in ticks) in various power states
system.mem_ctrls1.bytes_read::cpu.inst            128                       # Number of bytes read from this memory
system.mem_ctrls1.bytes_read::cpu.data            128                       # Number of bytes read from this memory
system.mem_ctrls1.bytes_read::switch_cpus.inst          896                       # Number of bytes read from this memory
system.mem_ctrls1.bytes_read::switch_cpus.data   1016893568                       # Number of bytes read from this memory
system.mem_ctrls1.bytes_read::switch_cpus_1.data    203750144                       # Number of bytes read from this memory
system.mem_ctrls1.bytes_read::total        1220644864                       # Number of bytes read from this memory
system.mem_ctrls1.bytes_inst_read::cpu.inst          128                       # Number of instructions bytes read from this memory
system.mem_ctrls1.bytes_inst_read::switch_cpus.inst          896                       # Number of instructions bytes read from this memory
system.mem_ctrls1.bytes_inst_read::total         1024                       # Number of instructions bytes read from this memory
system.mem_ctrls1.bytes_written::writebacks    913875840                       # Number of bytes written to this memory
system.mem_ctrls1.bytes_written::total      913875840                       # Number of bytes written to this memory
system.mem_ctrls1.num_reads::cpu.inst               2                       # Number of read requests responded to by this memory
system.mem_ctrls1.num_reads::cpu.data               2                       # Number of read requests responded to by this memory
system.mem_ctrls1.num_reads::switch_cpus.inst           14                       # Number of read requests responded to by this memory
system.mem_ctrls1.num_reads::switch_cpus.data     15888962                       # Number of read requests responded to by this memory
system.mem_ctrls1.num_reads::switch_cpus_1.data      3183596                       # Number of read requests responded to by this memory
system.mem_ctrls1.num_reads::total           19072576                       # Number of read requests responded to by this memory
system.mem_ctrls1.num_writes::writebacks     14279310                       # Number of write requests responded to by this memory
system.mem_ctrls1.num_writes::total          14279310                       # Number of write requests responded to by this memory
system.mem_ctrls1.bw_read::cpu.inst                19                       # Total read bandwidth from this memory (bytes/s)
system.mem_ctrls1.bw_read::cpu.data                19                       # Total read bandwidth from this memory (bytes/s)
system.mem_ctrls1.bw_read::switch_cpus.inst          133                       # Total read bandwidth from this memory (bytes/s)
system.mem_ctrls1.bw_read::switch_cpus.data    151272483                       # Total read bandwidth from this memory (bytes/s)
system.mem_ctrls1.bw_read::switch_cpus_1.data     30309750                       # Total read bandwidth from this memory (bytes/s)
system.mem_ctrls1.bw_read::total            181582404                       # Total read bandwidth from this memory (bytes/s)
system.mem_ctrls1.bw_inst_read::cpu.inst           19                       # Instruction read bandwidth from this memory (bytes/s)
system.mem_ctrls1.bw_inst_read::switch_cpus.inst          133                       # Instruction read bandwidth from this memory (bytes/s)
system.mem_ctrls1.bw_inst_read::total             152                       # Instruction read bandwidth from this memory (bytes/s)
system.mem_ctrls1.bw_write::writebacks      135947627                       # Write bandwidth from this memory (bytes/s)
system.mem_ctrls1.bw_write::total           135947627                       # Write bandwidth from this memory (bytes/s)
system.mem_ctrls1.bw_total::writebacks      135947627                       # Total bandwidth to/from this memory (bytes/s)
system.mem_ctrls1.bw_total::cpu.inst               19                       # Total bandwidth to/from this memory (bytes/s)
system.mem_ctrls1.bw_total::cpu.data               19                       # Total bandwidth to/from this memory (bytes/s)
system.mem_ctrls1.bw_total::switch_cpus.inst          133                       # Total bandwidth to/from this memory (bytes/s)
system.mem_ctrls1.bw_total::switch_cpus.data    151272483                       # Total bandwidth to/from this memory (bytes/s)
system.mem_ctrls1.bw_total::switch_cpus_1.data     30309750                       # Total bandwidth to/from this memory (bytes/s)
system.mem_ctrls1.bw_total::total           317530031                       # Total bandwidth to/from this memory (bytes/s)
system.mem_ctrls1.readReqs                   19072576                       # Number of read requests accepted
system.mem_ctrls1.writeReqs                  14279310                       # Number of write requests accepted
system.mem_ctrls1.readBursts                 19072576                       # Number of DRAM read bursts, including those serviced by the write queue
system.mem_ctrls1.writeBursts                14279310                       # Number of DRAM write bursts, including those merged in the write queue
system.mem_ctrls1.bytesReadDRAM            1220644864                       # Total number of bytes read from DRAM
system.mem_ctrls1.bytesReadWrQ                      0                       # Total number of bytes read from write queue
system.mem_ctrls1.bytesWritten              913874240                       # Total number of bytes written to DRAM
system.mem_ctrls1.bytesReadSys             1220644864                       # Total read bytes from the system interface side
system.mem_ctrls1.bytesWrittenSys           913875840                       # Total written bytes from the system interface side
system.mem_ctrls1.servicedByWrQ                     0                       # Number of DRAM read bursts serviced by the write queue
system.mem_ctrls1.mergedWrBursts                    0                       # Number of DRAM write bursts merged with an existing one
system.mem_ctrls1.neitherReadNorWriteReqs            0                       # Number of requests that are neither read nor write
system.mem_ctrls1.perBankRdBursts::0          1191225                       # Per bank write bursts
system.mem_ctrls1.perBankRdBursts::1          1191358                       # Per bank write bursts
system.mem_ctrls1.perBankRdBursts::2          1191654                       # Per bank write bursts
system.mem_ctrls1.perBankRdBursts::3          1192004                       # Per bank write bursts
system.mem_ctrls1.perBankRdBursts::4          1192382                       # Per bank write bursts
system.mem_ctrls1.perBankRdBursts::5          1192648                       # Per bank write bursts
system.mem_ctrls1.perBankRdBursts::6          1192810                       # Per bank write bursts
system.mem_ctrls1.perBankRdBursts::7          1192960                       # Per bank write bursts
system.mem_ctrls1.perBankRdBursts::8          1192960                       # Per bank write bursts
system.mem_ctrls1.perBankRdBursts::9          1192782                       # Per bank write bursts
system.mem_ctrls1.perBankRdBursts::10         1192433                       # Per bank write bursts
system.mem_ctrls1.perBankRdBursts::11         1192092                       # Per bank write bursts
system.mem_ctrls1.perBankRdBursts::12         1191685                       # Per bank write bursts
system.mem_ctrls1.perBankRdBursts::13         1191272                       # Per bank write bursts
system.mem_ctrls1.perBankRdBursts::14         1191150                       # Per bank write bursts
system.mem_ctrls1.perBankRdBursts::15         1191161                       # Per bank write bursts
system.mem_ctrls1.perBankWrBursts::0           891945                       # Per bank write bursts
system.mem_ctrls1.perBankWrBursts::1           892072                       # Per bank write bursts
system.mem_ctrls1.perBankWrBursts::2           892262                       # Per bank write bursts
system.mem_ctrls1.perBankWrBursts::3           892436                       # Per bank write bursts
system.mem_ctrls1.perBankWrBursts::4           892734                       # Per bank write bursts
system.mem_ctrls1.perBankWrBursts::5           892912                       # Per bank write bursts
system.mem_ctrls1.perBankWrBursts::6           893012                       # Per bank write bursts
system.mem_ctrls1.perBankWrBursts::7           893108                       # Per bank write bursts
system.mem_ctrls1.perBankWrBursts::8           893056                       # Per bank write bursts
system.mem_ctrls1.perBankWrBursts::9           892844                       # Per bank write bursts
system.mem_ctrls1.perBankWrBursts::10          892620                       # Per bank write bursts
system.mem_ctrls1.perBankWrBursts::11          892450                       # Per bank write bursts
system.mem_ctrls1.perBankWrBursts::12          892149                       # Per bank write bursts
system.mem_ctrls1.perBankWrBursts::13          891935                       # Per bank write bursts
system.mem_ctrls1.perBankWrBursts::14          891853                       # Per bank write bursts
system.mem_ctrls1.perBankWrBursts::15          891897                       # Per bank write bursts
system.mem_ctrls1.numRdRetry                        0                       # Number of times read queue was full causing retry
system.mem_ctrls1.numWrRetry                        0                       # Number of times write queue was full causing retry
system.mem_ctrls1.totGap                 6722263913094                       # Total gap between requests
system.mem_ctrls1.readPktSize::0                    0                       # Read request sizes (log2)
system.mem_ctrls1.readPktSize::1                    0                       # Read request sizes (log2)
system.mem_ctrls1.readPktSize::2                    0                       # Read request sizes (log2)
system.mem_ctrls1.readPktSize::3                    0                       # Read request sizes (log2)
system.mem_ctrls1.readPktSize::4                    0                       # Read request sizes (log2)
system.mem_ctrls1.readPktSize::5                    0                       # Read request sizes (log2)
system.mem_ctrls1.readPktSize::6             19072576                       # Read request sizes (log2)
system.mem_ctrls1.writePktSize::0                   0                       # Write request sizes (log2)
system.mem_ctrls1.writePktSize::1                   0                       # Write request sizes (log2)
system.mem_ctrls1.writePktSize::2                   0                       # Write request sizes (log2)
system.mem_ctrls1.writePktSize::3                   0                       # Write request sizes (log2)
system.mem_ctrls1.writePktSize::4                   0                       # Write request sizes (log2)
system.mem_ctrls1.writePktSize::5                   0                       # Write request sizes (log2)
system.mem_ctrls1.writePktSize::6            14279310                       # Write request sizes (log2)
system.mem_ctrls1.rdQLenPdf::0               17915196                       # What read queue length does an incoming req see
system.mem_ctrls1.rdQLenPdf::1                 892417                       # What read queue length does an incoming req see
system.mem_ctrls1.rdQLenPdf::2                 249819                       # What read queue length does an incoming req see
system.mem_ctrls1.rdQLenPdf::3                  15144                       # What read queue length does an incoming req see
system.mem_ctrls1.rdQLenPdf::4                      0                       # What read queue length does an incoming req see
system.mem_ctrls1.rdQLenPdf::5                      0                       # What read queue length does an incoming req see
system.mem_ctrls1.rdQLenPdf::6                      0                       # What read queue length does an incoming req see
system.mem_ctrls1.rdQLenPdf::7                      0                       # What read queue length does an incoming req see
system.mem_ctrls1.rdQLenPdf::8                      0                       # What read queue length does an incoming req see
system.mem_ctrls1.rdQLenPdf::9                      0                       # What read queue length does an incoming req see
system.mem_ctrls1.rdQLenPdf::10                     0                       # What read queue length does an incoming req see
system.mem_ctrls1.rdQLenPdf::11                     0                       # What read queue length does an incoming req see
system.mem_ctrls1.rdQLenPdf::12                     0                       # What read queue length does an incoming req see
system.mem_ctrls1.rdQLenPdf::13                     0                       # What read queue length does an incoming req see
system.mem_ctrls1.rdQLenPdf::14                     0                       # What read queue length does an incoming req see
system.mem_ctrls1.rdQLenPdf::15                     0                       # What read queue length does an incoming req see
system.mem_ctrls1.rdQLenPdf::16                     0                       # What read queue length does an incoming req see
system.mem_ctrls1.rdQLenPdf::17                     0                       # What read queue length does an incoming req see
system.mem_ctrls1.rdQLenPdf::18                     0                       # What read queue length does an incoming req see
system.mem_ctrls1.rdQLenPdf::19                     0                       # What read queue length does an incoming req see
system.mem_ctrls1.rdQLenPdf::20                     0                       # What read queue length does an incoming req see
system.mem_ctrls1.rdQLenPdf::21                     0                       # What read queue length does an incoming req see
system.mem_ctrls1.rdQLenPdf::22                     0                       # What read queue length does an incoming req see
system.mem_ctrls1.rdQLenPdf::23                     0                       # What read queue length does an incoming req see
system.mem_ctrls1.rdQLenPdf::24                     0                       # What read queue length does an incoming req see
system.mem_ctrls1.rdQLenPdf::25                     0                       # What read queue length does an incoming req see
system.mem_ctrls1.rdQLenPdf::26                     0                       # What read queue length does an incoming req see
system.mem_ctrls1.rdQLenPdf::27                     0                       # What read queue length does an incoming req see
system.mem_ctrls1.rdQLenPdf::28                     0                       # What read queue length does an incoming req see
system.mem_ctrls1.rdQLenPdf::29                     0                       # What read queue length does an incoming req see
system.mem_ctrls1.rdQLenPdf::30                     0                       # What read queue length does an incoming req see
system.mem_ctrls1.rdQLenPdf::31                     0                       # What read queue length does an incoming req see
system.mem_ctrls1.wrQLenPdf::0                      2                       # What write queue length does an incoming req see
system.mem_ctrls1.wrQLenPdf::1                      2                       # What write queue length does an incoming req see
system.mem_ctrls1.wrQLenPdf::2                      2                       # What write queue length does an incoming req see
system.mem_ctrls1.wrQLenPdf::3                      2                       # What write queue length does an incoming req see
system.mem_ctrls1.wrQLenPdf::4                      2                       # What write queue length does an incoming req see
system.mem_ctrls1.wrQLenPdf::5                      2                       # What write queue length does an incoming req see
system.mem_ctrls1.wrQLenPdf::6                      2                       # What write queue length does an incoming req see
system.mem_ctrls1.wrQLenPdf::7                      2                       # What write queue length does an incoming req see
system.mem_ctrls1.wrQLenPdf::8                      2                       # What write queue length does an incoming req see
system.mem_ctrls1.wrQLenPdf::9                      2                       # What write queue length does an incoming req see
system.mem_ctrls1.wrQLenPdf::10                     2                       # What write queue length does an incoming req see
system.mem_ctrls1.wrQLenPdf::11                     2                       # What write queue length does an incoming req see
system.mem_ctrls1.wrQLenPdf::12                     2                       # What write queue length does an incoming req see
system.mem_ctrls1.wrQLenPdf::13                     2                       # What write queue length does an incoming req see
system.mem_ctrls1.wrQLenPdf::14                     2                       # What write queue length does an incoming req see
system.mem_ctrls1.wrQLenPdf::15                577128                       # What write queue length does an incoming req see
system.mem_ctrls1.wrQLenPdf::16                592106                       # What write queue length does an incoming req see
system.mem_ctrls1.wrQLenPdf::17                785238                       # What write queue length does an incoming req see
system.mem_ctrls1.wrQLenPdf::18                815251                       # What write queue length does an incoming req see
system.mem_ctrls1.wrQLenPdf::19                822202                       # What write queue length does an incoming req see
system.mem_ctrls1.wrQLenPdf::20                822523                       # What write queue length does an incoming req see
system.mem_ctrls1.wrQLenPdf::21                831087                       # What write queue length does an incoming req see
system.mem_ctrls1.wrQLenPdf::22                823531                       # What write queue length does an incoming req see
system.mem_ctrls1.wrQLenPdf::23                832277                       # What write queue length does an incoming req see
system.mem_ctrls1.wrQLenPdf::24                820984                       # What write queue length does an incoming req see
system.mem_ctrls1.wrQLenPdf::25                821339                       # What write queue length does an incoming req see
system.mem_ctrls1.wrQLenPdf::26                822181                       # What write queue length does an incoming req see
system.mem_ctrls1.wrQLenPdf::27                822576                       # What write queue length does an incoming req see
system.mem_ctrls1.wrQLenPdf::28                818915                       # What write queue length does an incoming req see
system.mem_ctrls1.wrQLenPdf::29                819045                       # What write queue length does an incoming req see
system.mem_ctrls1.wrQLenPdf::30                818629                       # What write queue length does an incoming req see
system.mem_ctrls1.wrQLenPdf::31                816061                       # What write queue length does an incoming req see
system.mem_ctrls1.wrQLenPdf::32                816123                       # What write queue length does an incoming req see
system.mem_ctrls1.wrQLenPdf::33                  1795                       # What write queue length does an incoming req see
system.mem_ctrls1.wrQLenPdf::34                   261                       # What write queue length does an incoming req see
system.mem_ctrls1.wrQLenPdf::35                    27                       # What write queue length does an incoming req see
system.mem_ctrls1.wrQLenPdf::36                     1                       # What write queue length does an incoming req see
system.mem_ctrls1.wrQLenPdf::37                     0                       # What write queue length does an incoming req see
system.mem_ctrls1.wrQLenPdf::38                     0                       # What write queue length does an incoming req see
system.mem_ctrls1.wrQLenPdf::39                     0                       # What write queue length does an incoming req see
system.mem_ctrls1.wrQLenPdf::40                     0                       # What write queue length does an incoming req see
system.mem_ctrls1.wrQLenPdf::41                     0                       # What write queue length does an incoming req see
system.mem_ctrls1.wrQLenPdf::42                     0                       # What write queue length does an incoming req see
system.mem_ctrls1.wrQLenPdf::43                     0                       # What write queue length does an incoming req see
system.mem_ctrls1.wrQLenPdf::44                     0                       # What write queue length does an incoming req see
system.mem_ctrls1.wrQLenPdf::45                     0                       # What write queue length does an incoming req see
system.mem_ctrls1.wrQLenPdf::46                     0                       # What write queue length does an incoming req see
system.mem_ctrls1.wrQLenPdf::47                     0                       # What write queue length does an incoming req see
system.mem_ctrls1.wrQLenPdf::48                     0                       # What write queue length does an incoming req see
system.mem_ctrls1.wrQLenPdf::49                     0                       # What write queue length does an incoming req see
system.mem_ctrls1.wrQLenPdf::50                     0                       # What write queue length does an incoming req see
system.mem_ctrls1.wrQLenPdf::51                     0                       # What write queue length does an incoming req see
system.mem_ctrls1.wrQLenPdf::52                     0                       # What write queue length does an incoming req see
system.mem_ctrls1.wrQLenPdf::53                     0                       # What write queue length does an incoming req see
system.mem_ctrls1.wrQLenPdf::54                     0                       # What write queue length does an incoming req see
system.mem_ctrls1.wrQLenPdf::55                     0                       # What write queue length does an incoming req see
system.mem_ctrls1.wrQLenPdf::56                     0                       # What write queue length does an incoming req see
system.mem_ctrls1.wrQLenPdf::57                     0                       # What write queue length does an incoming req see
system.mem_ctrls1.wrQLenPdf::58                     0                       # What write queue length does an incoming req see
system.mem_ctrls1.wrQLenPdf::59                     0                       # What write queue length does an incoming req see
system.mem_ctrls1.wrQLenPdf::60                     0                       # What write queue length does an incoming req see
system.mem_ctrls1.wrQLenPdf::61                     0                       # What write queue length does an incoming req see
system.mem_ctrls1.wrQLenPdf::62                     0                       # What write queue length does an incoming req see
system.mem_ctrls1.wrQLenPdf::63                     0                       # What write queue length does an incoming req see
system.mem_ctrls1.bytesPerActivate::samples     12869234                       # Bytes accessed per row activation
system.mem_ctrls1.bytesPerActivate::mean   165.861978                       # Bytes accessed per row activation
system.mem_ctrls1.bytesPerActivate::gmean   124.805997                       # Bytes accessed per row activation
system.mem_ctrls1.bytesPerActivate::stdev   155.723230                       # Bytes accessed per row activation
system.mem_ctrls1.bytesPerActivate::0-127      5397272     41.94%     41.94% # Bytes accessed per row activation
system.mem_ctrls1.bytesPerActivate::128-255      5013187     38.95%     80.89% # Bytes accessed per row activation
system.mem_ctrls1.bytesPerActivate::256-383      1244432      9.67%     90.56% # Bytes accessed per row activation
system.mem_ctrls1.bytesPerActivate::384-511       490412      3.81%     94.37% # Bytes accessed per row activation
system.mem_ctrls1.bytesPerActivate::512-639       316359      2.46%     96.83% # Bytes accessed per row activation
system.mem_ctrls1.bytesPerActivate::640-767       207067      1.61%     98.44% # Bytes accessed per row activation
system.mem_ctrls1.bytesPerActivate::768-895       100941      0.78%     99.23% # Bytes accessed per row activation
system.mem_ctrls1.bytesPerActivate::896-1023        51248      0.40%     99.62% # Bytes accessed per row activation
system.mem_ctrls1.bytesPerActivate::1024-1151        48316      0.38%    100.00% # Bytes accessed per row activation
system.mem_ctrls1.bytesPerActivate::total     12869234                       # Bytes accessed per row activation
system.mem_ctrls1.rdPerTurnAround::samples       815579                       # Reads before turning the bus around for writes
system.mem_ctrls1.rdPerTurnAround::mean     23.385307                       # Reads before turning the bus around for writes
system.mem_ctrls1.rdPerTurnAround::gmean    23.122702                       # Reads before turning the bus around for writes
system.mem_ctrls1.rdPerTurnAround::stdev    36.635392                       # Reads before turning the bus around for writes
system.mem_ctrls1.rdPerTurnAround::0-2047       815578    100.00%    100.00% # Reads before turning the bus around for writes
system.mem_ctrls1.rdPerTurnAround::32768-34815            1      0.00%    100.00% # Reads before turning the bus around for writes
system.mem_ctrls1.rdPerTurnAround::total       815579                       # Reads before turning the bus around for writes
system.mem_ctrls1.wrPerTurnAround::samples       815579                       # Writes before turning the bus around for reads
system.mem_ctrls1.wrPerTurnAround::mean     17.508157                       # Writes before turning the bus around for reads
system.mem_ctrls1.wrPerTurnAround::gmean    17.480192                       # Writes before turning the bus around for reads
system.mem_ctrls1.wrPerTurnAround::stdev     0.977411                       # Writes before turning the bus around for reads
system.mem_ctrls1.wrPerTurnAround::16          223727     27.43%     27.43% # Writes before turning the bus around for reads
system.mem_ctrls1.wrPerTurnAround::17           10910      1.34%     28.77% # Writes before turning the bus around for reads
system.mem_ctrls1.wrPerTurnAround::18          530136     65.00%     93.77% # Writes before turning the bus around for reads
system.mem_ctrls1.wrPerTurnAround::19           44650      5.47%     99.25% # Writes before turning the bus around for reads
system.mem_ctrls1.wrPerTurnAround::20            5903      0.72%     99.97% # Writes before turning the bus around for reads
system.mem_ctrls1.wrPerTurnAround::21             243      0.03%    100.00% # Writes before turning the bus around for reads
system.mem_ctrls1.wrPerTurnAround::22               8      0.00%    100.00% # Writes before turning the bus around for reads
system.mem_ctrls1.wrPerTurnAround::23               2      0.00%    100.00% # Writes before turning the bus around for reads
system.mem_ctrls1.wrPerTurnAround::total       815579                       # Writes before turning the bus around for reads
system.mem_ctrls1.totQLat                474719486918                       # Total ticks spent queuing
system.mem_ctrls1.totMemAccLat           832330286918                       # Total ticks spent from burst creation until serviced by the DRAM
system.mem_ctrls1.totBusLat               95362880000                       # Total ticks spent in databus transfers
system.mem_ctrls1.avgQLat                    24890.16                       # Average queueing delay per DRAM burst
system.mem_ctrls1.avgBusLat                   5000.00                       # Average bus latency per DRAM burst
system.mem_ctrls1.avgMemAccLat               43640.16                       # Average memory access latency per DRAM burst
system.mem_ctrls1.avgRdBW                      181.58                       # Average DRAM read bandwidth in MiByte/s
system.mem_ctrls1.avgWrBW                      135.95                       # Average achieved write bandwidth in MiByte/s
system.mem_ctrls1.avgRdBWSys                   181.58                       # Average system read bandwidth in MiByte/s
system.mem_ctrls1.avgWrBWSys                   135.95                       # Average system write bandwidth in MiByte/s
system.mem_ctrls1.peakBW                     12800.00                       # Theoretical peak bandwidth in MiByte/s
system.mem_ctrls1.busUtil                        2.48                       # Data bus utilization in percentage
system.mem_ctrls1.busUtilRead                    1.42                       # Data bus utilization in percentage for reads
system.mem_ctrls1.busUtilWrite                   1.06                       # Data bus utilization in percentage for writes
system.mem_ctrls1.avgRdQLen                      1.03                       # Average read queue length when enqueuing
system.mem_ctrls1.avgWrQLen                     24.73                       # Average write queue length when enqueuing
system.mem_ctrls1.readRowHits                 8906846                       # Number of row buffer hits during reads
system.mem_ctrls1.writeRowHits               11575772                       # Number of row buffer hits during writes
system.mem_ctrls1.readRowHitRate                46.70                       # Row buffer hit rate for reads
system.mem_ctrls1.writeRowHitRate               81.07                       # Row buffer hit rate for writes
system.mem_ctrls1.avgGap                    201555.74                       # Average gap between requests
system.mem_ctrls1.pageHitRate                   61.41                       # Row buffer hit rate, read and write combined
system.mem_ctrls1_0.actEnergy             45941815920                       # Energy for activate commands per rank (pJ)
system.mem_ctrls1_0.preEnergy             24418646670                       # Energy for precharge commands per rank (pJ)
system.mem_ctrls1_0.readEnergy            68094472740                       # Energy for read commands per rank (pJ)
system.mem_ctrls1_0.writeEnergy           37273310820                       # Energy for write commands per rank (pJ)
system.mem_ctrls1_0.refreshEnergy        551798591760.000122                       # Energy for refresh commands per rank (pJ)
system.mem_ctrls1_0.actBackEnergy        589970235000                       # Energy for active background per rank (pJ)
system.mem_ctrls1_0.preBackEnergy         18687187680                       # Energy for precharge background per rank (pJ)
system.mem_ctrls1_0.actPowerDownEnergy   1904390862570                       # Energy for active power-down per rank (pJ)
system.mem_ctrls1_0.prePowerDownEnergy   391214908800                       # Energy for precharge power-down per rank (pJ)
system.mem_ctrls1_0.selfRefreshEnergy     78869617905                       # Energy for self refresh per rank (pJ)
system.mem_ctrls1_0.totalEnergy          3710898176865                       # Total energy per rank (pJ)
system.mem_ctrls1_0.averagePower           552.030989                       # Core power per rank (mW)
system.mem_ctrls1_0.totalIdleTime        5379278986845                       # Total Idle time Per DRAM Rank
system.mem_ctrls1_0.memoryStateTime::IDLE  22997230593                       # Time in different power states
system.mem_ctrls1_0.memoryStateTime::REF 233803176000                       # Time in different power states
system.mem_ctrls1_0.memoryStateTime::SREF 184189917588                       # Time in different power states
system.mem_ctrls1_0.memoryStateTime::PRE_PDN 1018784893299                       # Time in different power states
system.mem_ctrls1_0.memoryStateTime::ACT 1086184632543                       # Time in different power states
system.mem_ctrls1_0.memoryStateTime::ACT_PDN 4176304175958                       # Time in different power states
system.mem_ctrls1_1.actEnergy             45944579100                       # Energy for activate commands per rank (pJ)
system.mem_ctrls1_1.preEnergy             24420096360                       # Energy for precharge commands per rank (pJ)
system.mem_ctrls1_1.readEnergy            68083719900                       # Energy for read commands per rank (pJ)
system.mem_ctrls1_1.writeEnergy           37264556880                       # Energy for write commands per rank (pJ)
system.mem_ctrls1_1.refreshEnergy        551763557280.000122                       # Energy for refresh commands per rank (pJ)
system.mem_ctrls1_1.actBackEnergy        598943394450                       # Energy for active background per rank (pJ)
system.mem_ctrls1_1.preBackEnergy         18617896320                       # Energy for precharge background per rank (pJ)
system.mem_ctrls1_1.actPowerDownEnergy   1902062234730                       # Energy for active power-down per rank (pJ)
system.mem_ctrls1_1.prePowerDownEnergy   387203312640                       # Energy for precharge power-down per rank (pJ)
system.mem_ctrls1_1.selfRefreshEnergy     77587783080                       # Energy for self refresh per rank (pJ)
system.mem_ctrls1_1.totalEnergy          3712111409940                       # Total energy per rank (pJ)
system.mem_ctrls1_1.averagePower           552.211471                       # Core power per rank (mW)
system.mem_ctrls1_1.totalIdleTime        5359824429357                       # Total Idle time Per DRAM Rank
system.mem_ctrls1_1.memoryStateTime::IDLE  22748389790                       # Time in different power states
system.mem_ctrls1_1.memoryStateTime::REF 233784126000                       # Time in different power states
system.mem_ctrls1_1.memoryStateTime::SREF 180286167663                       # Time in different power states
system.mem_ctrls1_1.memoryStateTime::PRE_PDN 1008334979931                       # Time in different power states
system.mem_ctrls1_1.memoryStateTime::ACT 1105906922101                       # Time in different power states
system.mem_ctrls1_1.memoryStateTime::ACT_PDN 4171203440496                       # Time in different power states
system.pwrStateResidencyTicks::UNDEFINED 26707365385848                       # Cumulative time (in ticks) in various power states
system.cpu.branchPred.lookups                       0                       # Number of BP lookups
system.cpu.branchPred.condPredicted                 0                       # Number of conditional branches predicted
system.cpu.branchPred.condIncorrect                 0                       # Number of conditional branches incorrect
system.cpu.branchPred.BTBLookups                    0                       # Number of BTB lookups
system.cpu.branchPred.BTBHits                       0                       # Number of BTB hits
system.cpu.branchPred.BTBCorrect                    0                       # Number of correct BTB predictions (this stat may not work properly.
system.cpu.branchPred.BTBHitPct                   nan                       # BTB Hit Percentage
system.cpu.branchPred.usedRAS                       0                       # Number of times the RAS was used to get a target.
system.cpu.branchPred.RASInCorrect                  0                       # Number of incorrect RAS predictions.
system.cpu.branchPred.indirectLookups               0                       # Number of indirect predictor lookups.
system.cpu.branchPred.indirectHits                  0                       # Number of indirect target hits.
system.cpu.branchPred.indirectMisses                0                       # Number of indirect misses.
system.cpu.branchPredindirectMispredicted            0                       # Number of mispredicted indirect branches.
system.cpu_voltage_domain.voltage                   1                       # Voltage in Volts
system.cpu_clk_domain.clock                       333                       # Clock period in ticks
system.cpu.dtb.fetch_hits                           0                       # ITB hits
system.cpu.dtb.fetch_misses                         0                       # ITB misses
system.cpu.dtb.fetch_acv                            0                       # ITB acv
system.cpu.dtb.fetch_accesses                       0                       # ITB accesses
system.cpu.dtb.read_hits                           14                       # DTB read hits
system.cpu.dtb.read_misses                          0                       # DTB read misses
system.cpu.dtb.read_acv                             0                       # DTB read access violations
system.cpu.dtb.read_accesses                       14                       # DTB read accesses
system.cpu.dtb.write_hits                           1                       # DTB write hits
system.cpu.dtb.write_misses                         0                       # DTB write misses
system.cpu.dtb.write_acv                            0                       # DTB write access violations
system.cpu.dtb.write_accesses                       1                       # DTB write accesses
system.cpu.dtb.data_hits                           15                       # DTB hits
system.cpu.dtb.data_misses                          0                       # DTB misses
system.cpu.dtb.data_acv                             0                       # DTB access violations
system.cpu.dtb.data_accesses                       15                       # DTB accesses
system.cpu.itb.fetch_hits                           4                       # ITB hits
system.cpu.itb.fetch_misses                         0                       # ITB misses
system.cpu.itb.fetch_acv                            0                       # ITB acv
system.cpu.itb.fetch_accesses                       4                       # ITB accesses
system.cpu.itb.read_hits                            0                       # DTB read hits
system.cpu.itb.read_misses                          0                       # DTB read misses
system.cpu.itb.read_acv                             0                       # DTB read access violations
system.cpu.itb.read_accesses                        0                       # DTB read accesses
system.cpu.itb.write_hits                           0                       # DTB write hits
system.cpu.itb.write_misses                         0                       # DTB write misses
system.cpu.itb.write_acv                            0                       # DTB write access violations
system.cpu.itb.write_accesses                       0                       # DTB write accesses
system.cpu.itb.data_hits                            0                       # DTB hits
system.cpu.itb.data_misses                          0                       # DTB misses
system.cpu.itb.data_acv                             0                       # DTB access violations
system.cpu.itb.data_accesses                        0                       # DTB accesses
system.cpu.workload.num_syscalls                    0                       # Number of system calls
system.cpu.pwrStateResidencyTicks::ON    6722264025981                       # Cumulative time (in ticks) in various power states
system.cpu.numCycles                              987                       # number of cpu cycles simulated
system.cpu.numWorkItemsStarted                      0                       # number of work items this cpu started
system.cpu.numWorkItemsCompleted                    0                       # number of work items this cpu completed
system.cpu.fetch.icacheStallCycles                 63                       # Number of cycles fetch is stalled on an Icache miss
system.cpu.fetch.Insts                             29                       # Number of instructions fetch has processed
system.cpu.fetch.Cycles                             4                       # Number of cycles fetch has run and was not squashing or blocked
system.cpu.fetch.SquashCycles                       3                       # Number of cycles fetch has spent squashing
system.cpu.fetch.PendingDrainCycles                 8                       # Number of cycles fetch has spent waiting on pipes to drain
system.cpu.fetch.CacheLines                         4                       # Number of cache lines fetched
system.cpu.fetch.IcacheSquashes                     2                       # Number of outstanding Icache misses that were squashed
system.cpu.fetch.rateDist::samples                 76                       # Number of instructions fetched each cycle (Total)
system.cpu.fetch.rateDist::mean              0.381579                       # Number of instructions fetched each cycle (Total)
system.cpu.fetch.rateDist::stdev             1.657042                       # Number of instructions fetched each cycle (Total)
system.cpu.fetch.rateDist::underflows               0      0.00%      0.00% # Number of instructions fetched each cycle (Total)
system.cpu.fetch.rateDist::0                       72     94.74%     94.74% # Number of instructions fetched each cycle (Total)
system.cpu.fetch.rateDist::1                        0      0.00%     94.74% # Number of instructions fetched each cycle (Total)
system.cpu.fetch.rateDist::2                        0      0.00%     94.74% # Number of instructions fetched each cycle (Total)
system.cpu.fetch.rateDist::3                        0      0.00%     94.74% # Number of instructions fetched each cycle (Total)
system.cpu.fetch.rateDist::4                        0      0.00%     94.74% # Number of instructions fetched each cycle (Total)
system.cpu.fetch.rateDist::5                        1      1.32%     96.05% # Number of instructions fetched each cycle (Total)
system.cpu.fetch.rateDist::6                        0      0.00%     96.05% # Number of instructions fetched each cycle (Total)
system.cpu.fetch.rateDist::7                        0      0.00%     96.05% # Number of instructions fetched each cycle (Total)
system.cpu.fetch.rateDist::8                        3      3.95%    100.00% # Number of instructions fetched each cycle (Total)
system.cpu.fetch.rateDist::overflows                0      0.00%    100.00% # Number of instructions fetched each cycle (Total)
system.cpu.fetch.rateDist::min_value                0                       # Number of instructions fetched each cycle (Total)
system.cpu.fetch.rateDist::max_value                8                       # Number of instructions fetched each cycle (Total)
system.cpu.fetch.rateDist::total                   76                       # Number of instructions fetched each cycle (Total)
system.cpu.fetch.branchRate                         0                       # Number of branch fetches per cycle
system.cpu.fetch.rate                        0.029382                       # Number of inst fetches per cycle
system.cpu.decode.IdleCycles                       67                       # Number of cycles decode is idle
system.cpu.decode.BlockedCycles                     3                       # Number of cycles decode is blocked
system.cpu.decode.RunCycles                         4                       # Number of cycles decode is running
system.cpu.decode.SquashCycles                      2                       # Number of cycles decode is squashing
[...]
system.switch_cpus_1.iq.FU_type_0::IprAccess            0      0.00%    100.00% # Type of FU issued
system.switch_cpus_1.iq.FU_type_0::InstPrefetch            0      0.00%    100.00% # Type of FU issued
system.switch_cpus_1.iq.FU_type_0::total    325329484                       # Type of FU issued
system.switch_cpus_1.iq.rate                 0.341560                       # Inst issue rate
system.switch_cpus_1.iq.fu_busy_cnt          58573228                       # FU busy when requested
system.switch_cpus_1.iq.fu_busy_rate         0.180043                       # FU busy rate (busy events/executed inst)
system.switch_cpus_1.iq.int_inst_queue_reads   1005903728                       # Number of integer instruction queue reads
system.switch_cpus_1.iq.int_inst_queue_writes     23718867                       # Number of integer instruction queue writes
system.switch_cpus_1.iq.int_inst_queue_wakeup_accesses     22427148                       # Number of integer instruction queue wakeup accesses
system.switch_cpus_1.iq.fp_inst_queue_reads    655878230                       # Number of floating instruction queue reads
system.switch_cpus_1.iq.fp_inst_queue_writes    190413984                       # Number of floating instruction queue writes
system.switch_cpus_1.iq.fp_inst_queue_wakeup_accesses    182415990                       # Number of floating instruction queue wakeup accesses
system.switch_cpus_1.iq.int_alu_accesses     27749587                       # Number of integer alu accesses
system.switch_cpus_1.iq.fp_alu_accesses     356153125                       # Number of floating point alu accesses
system.switch_cpus_1.iew.lsq.thread0.forwLoads      8677844                       # Number of loads that had data forwarded from stores
system.switch_cpus_1.iew.lsq.thread0.invAddrLoads            0                       # Number of loads ignored due to an invalid address
system.switch_cpus_1.iew.lsq.thread0.squashedLoads      1756094                       # Number of loads squashed
system.switch_cpus_1.iew.lsq.thread0.ignoredResponses           19                       # Number of memory responses ignored because the instruction is squashed
system.switch_cpus_1.iew.lsq.thread0.memOrderViolation         1285                       # Number of memory ordering violations
system.switch_cpus_1.iew.lsq.thread0.squashedStores       662626                       # Number of stores squashed
system.switch_cpus_1.iew.lsq.thread0.invAddrSwpfs            0                       # Number of software prefetches ignored due to an invalid address
system.switch_cpus_1.iew.lsq.thread0.blockedLoads            0                       # Number of blocked loads due to partial load-store forwarding
system.switch_cpus_1.iew.lsq.thread0.rescheduledLoads            0                       # Number of loads that were rescheduled
system.switch_cpus_1.iew.lsq.thread0.cacheBlocked    128351021                       # Number of times an access to memory failed due to the cache being blocked
system.switch_cpus_1.iew.iewIdleCycles              0                       # Number of cycles IEW is idle
system.switch_cpus_1.iew.iewSquashCycles        62341                       # Number of cycles IEW is squashing
system.switch_cpus_1.iew.iewBlockCycles     671877942                       # Number of cycles IEW is blocking
system.switch_cpus_1.iew.iewUnblockCycles     56867839                       # Number of cycles IEW is unblocking
system.switch_cpus_1.iew.iewDispatchedInsts    207065829                       # Number of instructions dispatched to IQ
system.switch_cpus_1.iew.iewDispSquashedInsts            2                       # Number of squashed instructions skipped by dispatch
system.switch_cpus_1.iew.iewDispLoadInsts     38700683                       # Number of dispatched load instructions
system.switch_cpus_1.iew.iewDispStoreInsts     18524631                       # Number of dispatched store instructions
system.switch_cpus_1.iew.iewDispNonSpecInsts            0                       # Number of dispatched non-speculative instructions
system.switch_cpus_1.iew.iewIQFullEvents      2037247                       # Number of times the IQ has become full, causing a stall
system.switch_cpus_1.iew.iewLSQFullEvents     53034701                       # Number of times the LSQ has become full, causing a stall
system.switch_cpus_1.iew.memOrderViolationEvents         1285                       # Number of memory order violations
system.switch_cpus_1.iew.predictedTakenIncorrect         1289                       # Number of branches that were predicted taken incorrectly
system.switch_cpus_1.iew.predictedNotTakenIncorrect         8971                       # Number of branches that were predicted not taken incorrectly
system.switch_cpus_1.iew.branchMispredicts        10260                       # Number of branch mispredicts detected at execute
system.switch_cpus_1.iew.iewExecutedInsts    325322190                       # Number of executed instructions
system.switch_cpus_1.iew.iewExecLoadInsts    158589186                       # Number of load instructions executed
system.switch_cpus_1.iew.iewExecSquashedInsts         7280                       # Number of squashed instructions skipped in execute
system.switch_cpus_1.iew.exec_swp                   0                       # number of swp insts executed
system.switch_cpus_1.iew.exec_nop                   1                       # number of nop insts executed
system.switch_cpus_1.iew.exec_refs          176981294                       # number of memory reference insts executed
system.switch_cpus_1.iew.exec_branches        3143610                       # Number of branches executed
system.switch_cpus_1.iew.exec_stores         18392108                       # Number of stores executed
system.switch_cpus_1.iew.exec_rate           0.341553                       # Inst execution rate
system.switch_cpus_1.iew.wb_sent            205035656                       # cumulative count of insts sent to commit
system.switch_cpus_1.iew.wb_count           204843138                       # cumulative count of insts written-back
system.switch_cpus_1.iew.wb_producers       162755797                       # num instructions producing a value
system.switch_cpus_1.iew.wb_consumers       223382510                       # num instructions consuming a value
system.switch_cpus_1.iew.wb_rate             0.215063                       # insts written-back per cycle
system.switch_cpus_1.iew.wb_fanout           0.728597                       # average fanout of values written-back
system.switch_cpus_1.commit.commitSquashedInsts      7139898                       # The number of squashed insts skipped by commit
system.switch_cpus_1.commit.branchMispredicts        10260                       # The number of times a branch was mispredicted
system.switch_cpus_1.commit.committed_per_cycle::samples    951554886                       # Number of insts commited each cycle
system.switch_cpus_1.commit.committed_per_cycle::mean     0.210182                       # Number of insts commited each cycle
system.switch_cpus_1.commit.committed_per_cycle::stdev     1.178748                       # Number of insts commited each cycle
system.switch_cpus_1.commit.committed_per_cycle::underflows            0      0.00%      0.00% # Number of insts commited each cycle
system.switch_cpus_1.commit.committed_per_cycle::0    913610690     96.01%     96.01% # Number of insts commited each cycle
system.switch_cpus_1.commit.committed_per_cycle::1      7930649      0.83%     96.85% # Number of insts commited each cycle
system.switch_cpus_1.commit.committed_per_cycle::2      1817891      0.19%     97.04% # Number of insts commited each cycle
system.switch_cpus_1.commit.committed_per_cycle::3      2126674      0.22%     97.26% # Number of insts commited each cycle
system.switch_cpus_1.commit.committed_per_cycle::4      3030831      0.32%     97.58% # Number of insts commited each cycle
system.switch_cpus_1.commit.committed_per_cycle::5      3148530      0.33%     97.91% # Number of insts commited each cycle
system.switch_cpus_1.commit.committed_per_cycle::6      1813821      0.19%     98.10% # Number of insts commited each cycle
system.switch_cpus_1.commit.committed_per_cycle::7      1301750      0.14%     98.24% # Number of insts commited each cycle
system.switch_cpus_1.commit.committed_per_cycle::8     16774050      1.76%    100.00% # Number of insts commited each cycle
system.switch_cpus_1.commit.committed_per_cycle::overflows            0      0.00%    100.00% # Number of insts commited each cycle
system.switch_cpus_1.commit.committed_per_cycle::min_value            0                       # Number of insts commited each cycle
system.switch_cpus_1.commit.committed_per_cycle::max_value            8                       # Number of insts commited each cycle
system.switch_cpus_1.commit.committed_per_cycle::total    951554886                       # Number of insts commited each cycle
system.switch_cpus_1.commit.committedInsts    200000003                       # Number of instructions committed
system.switch_cpus_1.commit.committedOps    200000003                       # Number of ops (including micro ops) committed
system.switch_cpus_1.commit.swp_count               0                       # Number of s/w prefetches committed
system.switch_cpus_1.commit.refs             54806565                       # Number of memory references committed
system.switch_cpus_1.commit.loads            36944574                       # Number of loads committed
system.switch_cpus_1.commit.membars                 0                       # Number of memory barriers committed
system.switch_cpus_1.commit.branches          3002738                       # Number of branches committed
system.switch_cpus_1.commit.fp_insts        178679405                       # Number of committed floating point instructions.
system.switch_cpus_1.commit.int_insts        74337577                       # Number of committed integer instructions.
system.switch_cpus_1.commit.function_calls            0                       # Number of function calls committed.
system.switch_cpus_1.commit.op_class_0::No_OpClass            0      0.00%      0.00% # Class of committed instruction
system.switch_cpus_1.commit.op_class_0::IntAlu     20683879     10.34%     10.34% # Class of committed instruction
system.switch_cpus_1.commit.op_class_0::IntMult            0      0.00%     10.34% # Class of committed instruction
system.switch_cpus_1.commit.op_class_0::IntDiv            0      0.00%     10.34% # Class of committed instruction
system.switch_cpus_1.commit.op_class_0::FloatAdd     77818474     38.91%     49.25% # Class of committed instruction
system.switch_cpus_1.commit.op_class_0::FloatCmp            0      0.00%     49.25% # Class of committed instruction
system.switch_cpus_1.commit.op_class_0::FloatCvt            0      0.00%     49.25% # Class of committed instruction
system.switch_cpus_1.commit.op_class_0::FloatMult     44961786     22.48%     71.73% # Class of committed instruction
system.switch_cpus_1.commit.op_class_0::FloatMultAcc            0      0.00%     71.73% # Class of committed instruction
system.switch_cpus_1.commit.op_class_0::FloatDiv      1729299      0.86%     72.60% # Class of committed instruction
system.switch_cpus_1.commit.op_class_0::FloatMisc            0      0.00%     72.60% # Class of committed instruction
system.switch_cpus_1.commit.op_class_0::FloatSqrt            0      0.00%     72.60% # Class of committed instruction
system.switch_cpus_1.commit.op_class_0::SimdAdd            0      0.00%     72.60% # Class of committed instruction
system.switch_cpus_1.commit.op_class_0::SimdAddAcc            0      0.00%     72.60% # Class of committed instruction
system.switch_cpus_1.commit.op_class_0::SimdAlu            0      0.00%     72.60% # Class of committed instruction
system.switch_cpus_1.commit.op_class_0::SimdCmp            0      0.00%     72.60% # Class of committed instruction
system.switch_cpus_1.commit.op_class_0::SimdCvt            0      0.00%     72.60% # Class of committed instruction
system.switch_cpus_1.commit.op_class_0::SimdMisc            0      0.00%     72.60% # Class of committed instruction
system.switch_cpus_1.commit.op_class_0::SimdMult            0      0.00%     72.60% # Class of committed instruction
system.switch_cpus_1.commit.op_class_0::SimdMultAcc            0      0.00%     72.60% # Class of committed instruction
system.switch_cpus_1.commit.op_class_0::SimdShift            0      0.00%     72.60% # Class of committed instruction
system.switch_cpus_1.commit.op_class_0::SimdShiftAcc            0      0.00%     72.60% # Class of committed instruction
system.switch_cpus_1.commit.op_class_0::SimdSqrt            0      0.00%     72.60% # Class of committed instruction
system.switch_cpus_1.commit.op_class_0::SimdFloatAdd            0      0.00%     72.60% # Class of committed instruction
system.switch_cpus_1.commit.op_class_0::SimdFloatAlu            0      0.00%     72.60% # Class of committed instruction
system.switch_cpus_1.commit.op_class_0::SimdFloatCmp            0      0.00%     72.60% # Class of committed instruction
system.switch_cpus_1.commit.op_class_0::SimdFloatCvt            0      0.00%     72.60% # Class of committed instruction
system.switch_cpus_1.commit.op_class_0::SimdFloatDiv            0      0.00%     72.60% # Class of committed instruction
system.switch_cpus_1.commit.op_class_0::SimdFloatMisc            0      0.00%     72.60% # Class of committed instruction
system.switch_cpus_1.commit.op_class_0::SimdFloatMult            0      0.00%     72.60% # Class of committed instruction
system.switch_cpus_1.commit.op_class_0::SimdFloatMultAcc            0      0.00%     72.60% # Class of committed instruction
system.switch_cpus_1.commit.op_class_0::SimdFloatSqrt            0      0.00%     72.60% # Class of committed instruction
system.switch_cpus_1.commit.op_class_0::MemRead       636719      0.32%     72.92% # Class of committed instruction
system.switch_cpus_1.commit.op_class_0::MemWrite            0      0.00%     72.92% # Class of committed instruction
system.switch_cpus_1.commit.op_class_0::FloatMemRead     36307855     18.15%     91.07% # Class of committed instruction
system.switch_cpus_1.commit.op_class_0::FloatMemWrite     17861991      8.93%    100.00% # Class of committed instruction
system.switch_cpus_1.commit.op_class_0::IprAccess            0      0.00%    100.00% # Class of committed instruction
system.switch_cpus_1.commit.op_class_0::InstPrefetch            0      0.00%    100.00% # Class of committed instruction
system.switch_cpus_1.commit.op_class_0::total    200000003                       # Class of committed instruction
system.switch_cpus_1.commit.bw_lim_events     16774050                       # number cycles where commit BW limit reached
system.switch_cpus_1.rob.rob_reads         1141253408                       # The number of ROB reads
system.switch_cpus_1.rob.rob_writes         415205711                       # The number of ROB writes
system.switch_cpus_1.committedInsts         200000003                       # Number of Instructions Simulated
system.switch_cpus_1.committedOps           200000003                       # Number of Ops (including micro ops) Simulated
system.switch_cpus_1.cpi                     4.762403                       # CPI: Cycles Per Instruction
system.switch_cpus_1.cpi_total               4.762403                       # CPI: Total CPI of All Threads
system.switch_cpus_1.ipc                     0.209978                       # IPC: Instructions Per Cycle
system.switch_cpus_1.ipc_total               0.209978                       # IPC: Total IPC of All Threads
system.switch_cpus_1.int_regfile_reads      198234481                       # number of integer regfile reads
system.switch_cpus_1.int_regfile_writes      19284285                       # number of integer regfile writes
system.switch_cpus_1.fp_regfile_reads       271550800                       # number of floating regfile reads
system.switch_cpus_1.fp_regfile_writes      164076112                       # number of floating regfile writes
system.tol3bus.snoop_filter.tot_requests     76288142                       # Total number of requests made to the snoop filter.
system.tol3bus.snoop_filter.hit_single_requests     38141901                       # Number of requests hitting in the snoop filter with a single holder of the requested data.
system.tol3bus.snoop_filter.hit_multi_requests            0                       # Number of requests hitting in the snoop filter with multiple (>1) holders of the requested data.
system.tol3bus.snoop_filter.tot_snoops            758                       # Total number of snoops made to the snoop filter.
system.tol3bus.snoop_filter.hit_single_snoops          758                       # Number of snoops hitting in the snoop filter with a single holder of the requested data.
system.tol3bus.snoop_filter.hit_multi_snoops            0                       # Number of snoops hitting in the snoop filter with multiple (>1) holders of the requested data.
system.tol3bus.pwrStateResidencyTicks::UNDEFINED 26707365385848                       # Cumulative time (in ticks) in various power states
system.tol3bus.trans_dist::ReadResp           9536654                       # Transaction distribution
system.tol3bus.trans_dist::WritebackDirty     57164794                       # Transaction distribution
system.tol3bus.trans_dist::CleanEvict        19054901                       # Transaction distribution
system.tol3bus.trans_dist::ReadExReq         28609587                       # Transaction distribution
system.tol3bus.trans_dist::ReadExResp        28609586                       # Transaction distribution
system.tol3bus.trans_dist::ReadSharedReq      9536654                       # Transaction distribution
system.tol3bus.pkt_count_system.cpu.l2.mem_side::system.l3.cpu_side    114434382                       # Packet count per connected master and slave (bytes)
system.tol3bus.pkt_size_system.cpu.l2.mem_side::system.l3.cpu_side   4272153792                       # Cumulative packet size per connected master and slave (bytes)
system.tol3bus.snoops                        38077794                       # Total snoops (count)
system.tol3bus.snoopTraffic                1827752384                       # Total snoop traffic (bytes)
system.tol3bus.snoop_fanout::samples         76224035                       # Request fanout histogram
system.tol3bus.snoop_fanout::mean            0.000010                       # Request fanout histogram
system.tol3bus.snoop_fanout::stdev           0.003153                       # Request fanout histogram
system.tol3bus.snoop_fanout::underflows             0      0.00%      0.00% # Request fanout histogram
system.tol3bus.snoop_fanout::0               76223277    100.00%    100.00% # Request fanout histogram
system.tol3bus.snoop_fanout::1                    758      0.00%    100.00% # Request fanout histogram
system.tol3bus.snoop_fanout::overflows              0      0.00%    100.00% # Request fanout histogram
system.tol3bus.snoop_fanout::min_value              0                       # Request fanout histogram
system.tol3bus.snoop_fanout::max_value              1                       # Request fanout histogram
system.tol3bus.snoop_fanout::total           76224035                       # Request fanout histogram
system.tol3bus.reqLayer0.occupancy        34929803565                       # Layer occupancy (ticks)
system.tol3bus.reqLayer0.utilization              0.5                       # Layer utilization (%)
system.tol3bus.respLayer0.occupancy       25405395840                       # Layer occupancy (ticks)
system.tol3bus.respLayer0.utilization             0.4                       # Layer utilization (%)

---------- End Simulation Statistics   ----------
