
---------- Begin Simulation Statistics ----------
sim_seconds                                  3.116633                       # Number of seconds simulated
sim_ticks                                3116632950963                       # Number of ticks simulated
final_tick                               146593621268037                       # Number of ticks from beginning of simulation (restored from checkpoints and never reset)
sim_freq                                 1000000000000                       # Frequency of simulated ticks
host_inst_rate                                 277416                       # Simulator instruction rate (inst/s)
host_op_rate                                   277416                       # Simulator op (including micro ops) rate (op/s)
host_tick_rate                              720503217                       # Simulator tick rate (ticks/s)
host_mem_usage                                2541828                       # Number of bytes of host memory used
host_seconds                                  4325.63                       # Real time elapsed on the host
sim_insts                                  1200000006                       # Number of instructions simulated
sim_ops                                    1200000006                       # Number of ops (including micro ops) simulated
system.voltage_domain.voltage                       1                       # Voltage in Volts
system.clk_domain.clock                          1000                       # Clock period in ticks
system.mem_ctrls0.pwrStateResidencyTicks::UNDEFINED 146593621268037                       # Cumulative time (in ticks) in various power states
system.mem_ctrls0.bytes_read::cpu.inst            128                       # Number of bytes read from this memory
system.mem_ctrls0.bytes_read::cpu.data            256                       # Number of bytes read from this memory
system.mem_ctrls0.bytes_read::switch_cpus.inst        20864                       # Number of bytes read from this memory
system.mem_ctrls0.bytes_read::switch_cpus.data    482233216                       # Number of bytes read from this memory
system.mem_ctrls0.bytes_read::switch_cpus_1.inst         6720                       # Number of bytes read from this memory
system.mem_ctrls0.bytes_read::switch_cpus_1.data     85384256                       # Number of bytes read from this memory
system.mem_ctrls0.bytes_read::total         567645440                       # Number of bytes read from this memory
system.mem_ctrls0.bytes_inst_read::cpu.inst          128                       # Number of instructions bytes read from this memory
system.mem_ctrls0.bytes_inst_read::switch_cpus.inst        20864                       # Number of instructions bytes read from this memory
system.mem_ctrls0.bytes_inst_read::switch_cpus_1.inst         6720                       # Number of instructions bytes read from this memory
system.mem_ctrls0.bytes_inst_read::total        27712                       # Number of instructions bytes read from this memory
system.mem_ctrls0.bytes_written::writebacks    280513088                       # Number of bytes written to this memory
system.mem_ctrls0.bytes_written::total      280513088                       # Number of bytes written to this memory
system.mem_ctrls0.num_reads::cpu.inst               2                       # Number of read requests responded to by this memory
system.mem_ctrls0.num_reads::cpu.data               4                       # Number of read requests responded to by this memory
system.mem_ctrls0.num_reads::switch_cpus.inst          326                       # Number of read requests responded to by this memory
system.mem_ctrls0.num_reads::switch_cpus.data      7534894                       # Number of read requests responded to by this memory
system.mem_ctrls0.num_reads::switch_cpus_1.inst          105                       # Number of read requests responded to by this memory
system.mem_ctrls0.num_reads::switch_cpus_1.data      1334129                       # Number of read requests responded to by this memory
system.mem_ctrls0.num_reads::total            8869460                       # Number of read requests responded to by this memory
system.mem_ctrls0.num_writes::writebacks      4383017                       # Number of write requests responded to by this memory
system.mem_ctrls0.num_writes::total           4383017                       # Number of write requests responded to by this memory
system.mem_ctrls0.bw_read::cpu.inst                41                       # Total read bandwidth from this memory (bytes/s)
system.mem_ctrls0.bw_read::cpu.data                82                       # Total read bandwidth from this memory (bytes/s)
system.mem_ctrls0.bw_read::switch_cpus.inst         6694                       # Total read bandwidth from this memory (bytes/s)
system.mem_ctrls0.bw_read::switch_cpus.data    154728909                       # Total read bandwidth from this memory (bytes/s)
system.mem_ctrls0.bw_read::switch_cpus_1.inst         2156                       # Total read bandwidth from this memory (bytes/s)
system.mem_ctrls0.bw_read::switch_cpus_1.data     27396314                       # Total read bandwidth from this memory (bytes/s)
system.mem_ctrls0.bw_read::total            182134197                       # Total read bandwidth from this memory (bytes/s)
system.mem_ctrls0.bw_inst_read::cpu.inst           41                       # Instruction read bandwidth from this memory (bytes/s)
system.mem_ctrls0.bw_inst_read::switch_cpus.inst         6694                       # Instruction read bandwidth from this memory (bytes/s)
system.mem_ctrls0.bw_inst_read::switch_cpus_1.inst         2156                       # Instruction read bandwidth from this memory (bytes/s)
system.mem_ctrls0.bw_inst_read::total            8892                       # Instruction read bandwidth from this memory (bytes/s)
system.mem_ctrls0.bw_write::writebacks       90005173                       # Write bandwidth from this memory (bytes/s)
system.mem_ctrls0.bw_write::total            90005173                       # Write bandwidth from this memory (bytes/s)
system.mem_ctrls0.bw_total::writebacks       90005173                       # Total bandwidth to/from this memory (bytes/s)
system.mem_ctrls0.bw_total::cpu.inst               41                       # Total bandwidth to/from this memory (bytes/s)
system.mem_ctrls0.bw_total::cpu.data               82                       # Total bandwidth to/from this memory (bytes/s)
system.mem_ctrls0.bw_total::switch_cpus.inst         6694                       # Total bandwidth to/from this memory (bytes/s)
system.mem_ctrls0.bw_total::switch_cpus.data    154728909                       # Total bandwidth to/from this memory (bytes/s)
system.mem_ctrls0.bw_total::switch_cpus_1.inst         2156                       # Total bandwidth to/from this memory (bytes/s)
system.mem_ctrls0.bw_total::switch_cpus_1.data     27396314                       # Total bandwidth to/from this memory (bytes/s)
system.mem_ctrls0.bw_total::total           272139370                       # Total bandwidth to/from this memory (bytes/s)
system.mem_ctrls0.readReqs                    8869460                       # Number of read requests accepted
system.mem_ctrls0.writeReqs                   4383017                       # Number of write requests accepted
system.mem_ctrls0.readBursts                  8869460                       # Number of DRAM read bursts, including those serviced by the write queue
system.mem_ctrls0.writeBursts                 4383017                       # Number of DRAM write bursts, including those merged in the write queue
system.mem_ctrls0.bytesReadDRAM             567644352                       # Total number of bytes read from DRAM
system.mem_ctrls0.bytesReadWrQ                   1088                       # Total number of bytes read from write queue
system.mem_ctrls0.bytesWritten              280511936                       # Total number of bytes written to DRAM
system.mem_ctrls0.bytesReadSys              567645440                       # Total read bytes from the system interface side
system.mem_ctrls0.bytesWrittenSys           280513088                       # Total written bytes from the system interface side
system.mem_ctrls0.servicedByWrQ                    17                       # Number of DRAM read bursts serviced by the write queue
system.mem_ctrls0.mergedWrBursts                    0                       # Number of DRAM write bursts merged with an existing one
system.mem_ctrls0.neitherReadNorWriteReqs            0                       # Number of requests that are neither read nor write
system.mem_ctrls0.perBankRdBursts::0           553986                       # Per bank write bursts
system.mem_ctrls0.perBankRdBursts::1           552547                       # Per bank write bursts
system.mem_ctrls0.perBankRdBursts::2           554211                       # Per bank write bursts
system.mem_ctrls0.perBankRdBursts::3           556368                       # Per bank write bursts
system.mem_ctrls0.perBankRdBursts::4           555669                       # Per bank write bursts
system.mem_ctrls0.perBankRdBursts::5           553754                       # Per bank write bursts
system.mem_ctrls0.perBankRdBursts::6           553842                       # Per bank write bursts
system.mem_ctrls0.perBankRdBursts::7           554768                       # Per bank write bursts
system.mem_ctrls0.perBankRdBursts::8           555749                       # Per bank write bursts
system.mem_ctrls0.perBankRdBursts::9           552615                       # Per bank write bursts
system.mem_ctrls0.perBankRdBursts::10          551780                       # Per bank write bursts
system.mem_ctrls0.perBankRdBursts::11          554898                       # Per bank write bursts
system.mem_ctrls0.perBankRdBursts::12          555224                       # Per bank write bursts
system.mem_ctrls0.perBankRdBursts::13          555063                       # Per bank write bursts
system.mem_ctrls0.perBankRdBursts::14          555098                       # Per bank write bursts
system.mem_ctrls0.perBankRdBursts::15          553871                       # Per bank write bursts
system.mem_ctrls0.perBankWrBursts::0           275334                       # Per bank write bursts
system.mem_ctrls0.perBankWrBursts::1           273950                       # Per bank write bursts
system.mem_ctrls0.perBankWrBursts::2           273405                       # Per bank write bursts
system.mem_ctrls0.perBankWrBursts::3           274134                       # Per bank write bursts
system.mem_ctrls0.perBankWrBursts::4           274289                       # Per bank write bursts
system.mem_ctrls0.perBankWrBursts::5           273928                       # Per bank write bursts
system.mem_ctrls0.perBankWrBursts::6           273816                       # Per bank write bursts
system.mem_ctrls0.perBankWrBursts::7           273455                       # Per bank write bursts
system.mem_ctrls0.perBankWrBursts::8           273126                       # Per bank write bursts
system.mem_ctrls0.perBankWrBursts::9           272881                       # Per bank write bursts
system.mem_ctrls0.perBankWrBursts::10          273829                       # Per bank write bursts
system.mem_ctrls0.perBankWrBursts::11          275406                       # Per bank write bursts
system.mem_ctrls0.perBankWrBursts::12          274265                       # Per bank write bursts
system.mem_ctrls0.perBankWrBursts::13          272930                       # Per bank write bursts
system.mem_ctrls0.perBankWrBursts::14          273405                       # Per bank write bursts
system.mem_ctrls0.perBankWrBursts::15          274846                       # Per bank write bursts
system.mem_ctrls0.numRdRetry                        0                       # Number of times read queue was full causing retry
system.mem_ctrls0.numWrRetry                        0                       # Number of times write queue was full causing retry
system.mem_ctrls0.totGap                 3116632886694                       # Total gap between requests
system.mem_ctrls0.readPktSize::0                    0                       # Read request sizes (log2)
system.mem_ctrls0.readPktSize::1                    0                       # Read request sizes (log2)
system.mem_ctrls0.readPktSize::2                    0                       # Read request sizes (log2)
system.mem_ctrls0.readPktSize::3                    0                       # Read request sizes (log2)
system.mem_ctrls0.readPktSize::4                    0                       # Read request sizes (log2)
system.mem_ctrls0.readPktSize::5                    0                       # Read request sizes (log2)
system.mem_ctrls0.readPktSize::6              8869460                       # Read request sizes (log2)
system.mem_ctrls0.writePktSize::0                   0                       # Write request sizes (log2)
system.mem_ctrls0.writePktSize::1                   0                       # Write request sizes (log2)
system.mem_ctrls0.writePktSize::2                   0                       # Write request sizes (log2)
system.mem_ctrls0.writePktSize::3                   0                       # Write request sizes (log2)
system.mem_ctrls0.writePktSize::4                   0                       # Write request sizes (log2)
system.mem_ctrls0.writePktSize::5                   0                       # Write request sizes (log2)
system.mem_ctrls0.writePktSize::6             4383017                       # Write request sizes (log2)
system.mem_ctrls0.rdQLenPdf::0                8418200                       # What read queue length does an incoming req see
system.mem_ctrls0.rdQLenPdf::1                 329620                       # What read queue length does an incoming req see
system.mem_ctrls0.rdQLenPdf::2                 105675                       # What read queue length does an incoming req see
system.mem_ctrls0.rdQLenPdf::3                  15948                       # What read queue length does an incoming req see
system.mem_ctrls0.rdQLenPdf::4                      0                       # What read queue length does an incoming req see
system.mem_ctrls0.rdQLenPdf::5                      0                       # What read queue length does an incoming req see
system.mem_ctrls0.rdQLenPdf::6                      0                       # What read queue length does an incoming req see
system.mem_ctrls0.rdQLenPdf::7                      0                       # What read queue length does an incoming req see
system.mem_ctrls0.rdQLenPdf::8                      0                       # What read queue length does an incoming req see
system.mem_ctrls0.rdQLenPdf::9                      0                       # What read queue length does an incoming req see
system.mem_ctrls0.rdQLenPdf::10                     0                       # What read queue length does an incoming req see
system.mem_ctrls0.rdQLenPdf::11                     0                       # What read queue length does an incoming req see
system.mem_ctrls0.rdQLenPdf::12                     0                       # What read queue length does an incoming req see
system.mem_ctrls0.rdQLenPdf::13                     0                       # What read queue length does an incoming req see
system.mem_ctrls0.rdQLenPdf::14                     0                       # What read queue length does an incoming req see
system.mem_ctrls0.rdQLenPdf::15                     0                       # What read queue length does an incoming req see
system.mem_ctrls0.rdQLenPdf::16                     0                       # What read queue length does an incoming req see
system.mem_ctrls0.rdQLenPdf::17                     0                       # What read queue length does an incoming req see
system.mem_ctrls0.rdQLenPdf::18                     0                       # What read queue length does an incoming req see
system.mem_ctrls0.rdQLenPdf::19                     0                       # What read queue length does an incoming req see
system.mem_ctrls0.rdQLenPdf::20                     0                       # What read queue length does an incoming req see
system.mem_ctrls0.rdQLenPdf::21                     0                       # What read queue length does an incoming req see
system.mem_ctrls0.rdQLenPdf::22                     0                       # What read queue length does an incoming req see
system.mem_ctrls0.rdQLenPdf::23                     0                       # What read queue length does an incoming req see
system.mem_ctrls0.rdQLenPdf::24                     0                       # What read queue length does an incoming req see
system.mem_ctrls0.rdQLenPdf::25                     0                       # What read queue length does an incoming req see
system.mem_ctrls0.rdQLenPdf::26                     0                       # What read queue length does an incoming req see
system.mem_ctrls0.rdQLenPdf::27                     0                       # What read queue length does an incoming req see
system.mem_ctrls0.rdQLenPdf::28                     0                       # What read queue length does an incoming req see
system.mem_ctrls0.rdQLenPdf::29                     0                       # What read queue length does an incoming req see
system.mem_ctrls0.rdQLenPdf::30                     0                       # What read queue length does an incoming req see
system.mem_ctrls0.rdQLenPdf::31                     0                       # What read queue length does an incoming req see
system.mem_ctrls0.wrQLenPdf::0                      2                       # What write queue length does an incoming req see
system.mem_ctrls0.wrQLenPdf::1                      2                       # What write queue length does an incoming req see
system.mem_ctrls0.wrQLenPdf::2                      2                       # What write queue length does an incoming req see
system.mem_ctrls0.wrQLenPdf::3                      2                       # What write queue length does an incoming req see
system.mem_ctrls0.wrQLenPdf::4                      2                       # What write queue length does an incoming req see
system.mem_ctrls0.wrQLenPdf::5                      2                       # What write queue length does an incoming req see
system.mem_ctrls0.wrQLenPdf::6                      2                       # What write queue length does an incoming req see
system.mem_ctrls0.wrQLenPdf::7                      2                       # What write queue length does an incoming req see
system.mem_ctrls0.wrQLenPdf::8                      2                       # What write queue length does an incoming req see
system.mem_ctrls0.wrQLenPdf::9                      2                       # What write queue length does an incoming req see
system.mem_ctrls0.wrQLenPdf::10                     2                       # What write queue length does an incoming req see
system.mem_ctrls0.wrQLenPdf::11                     2                       # What write queue length does an incoming req see
system.mem_ctrls0.wrQLenPdf::12                     2                       # What write queue length does an incoming req see
system.mem_ctrls0.wrQLenPdf::13                     2                       # What write queue length does an incoming req see
system.mem_ctrls0.wrQLenPdf::14                     2                       # What write queue length does an incoming req see
system.mem_ctrls0.wrQLenPdf::15                153487                       # What write queue length does an incoming req see
system.mem_ctrls0.wrQLenPdf::16                160809                       # What write queue length does an incoming req see
system.mem_ctrls0.wrQLenPdf::17                245966                       # What write queue length does an incoming req see
system.mem_ctrls0.wrQLenPdf::18                253293                       # What write queue length does an incoming req see
system.mem_ctrls0.wrQLenPdf::19                254420                       # What write queue length does an incoming req see
system.mem_ctrls0.wrQLenPdf::20                254461                       # What write queue length does an incoming req see
system.mem_ctrls0.wrQLenPdf::21                254593                       # What write queue length does an incoming req see
system.mem_ctrls0.wrQLenPdf::22                254670                       # What write queue length does an incoming req see
system.mem_ctrls0.wrQLenPdf::23                254846                       # What write queue length does an incoming req see
system.mem_ctrls0.wrQLenPdf::24                255150                       # What write queue length does an incoming req see
system.mem_ctrls0.wrQLenPdf::25                255429                       # What write queue length does an incoming req see
system.mem_ctrls0.wrQLenPdf::26                255083                       # What write queue length does an incoming req see
system.mem_ctrls0.wrQLenPdf::27                254855                       # What write queue length does an incoming req see
system.mem_ctrls0.wrQLenPdf::28                255074                       # What write queue length does an incoming req see
system.mem_ctrls0.wrQLenPdf::29                255306                       # What write queue length does an incoming req see
system.mem_ctrls0.wrQLenPdf::30                257310                       # What write queue length does an incoming req see
system.mem_ctrls0.wrQLenPdf::31                254099                       # What write queue length does an incoming req see
system.mem_ctrls0.wrQLenPdf::32                253832                       # What write queue length does an incoming req see
system.mem_ctrls0.wrQLenPdf::33                   249                       # What write queue length does an incoming req see
system.mem_ctrls0.wrQLenPdf::34                    40                       # What write queue length does an incoming req see
system.mem_ctrls0.wrQLenPdf::35                    10                       # What write queue length does an incoming req see
system.mem_ctrls0.wrQLenPdf::36                     3                       # What write queue length does an incoming req see
system.mem_ctrls0.wrQLenPdf::37                     1                       # What write queue length does an incoming req see
system.mem_ctrls0.wrQLenPdf::38                     1                       # What write queue length does an incoming req see
system.mem_ctrls0.wrQLenPdf::39                     0                       # What write queue length does an incoming req see
system.mem_ctrls0.wrQLenPdf::40                     0                       # What write queue length does an incoming req see
system.mem_ctrls0.wrQLenPdf::41                     0                       # What write queue length does an incoming req see
system.mem_ctrls0.wrQLenPdf::42                     0                       # What write queue length does an incoming req see
system.mem_ctrls0.wrQLenPdf::43                     0                       # What write queue length does an incoming req see
system.mem_ctrls0.wrQLenPdf::44                     0                       # What write queue length does an incoming req see
system.mem_ctrls0.wrQLenPdf::45                     0                       # What write queue length does an incoming req see
system.mem_ctrls0.wrQLenPdf::46                     0                       # What write queue length does an incoming req see
system.mem_ctrls0.wrQLenPdf::47                     0                       # What write queue length does an incoming req see
system.mem_ctrls0.wrQLenPdf::48                     0                       # What write queue length does an incoming req see
system.mem_ctrls0.wrQLenPdf::49                     0                       # What write queue length does an incoming req see
system.mem_ctrls0.wrQLenPdf::50                     0                       # What write queue length does an incoming req see
system.mem_ctrls0.wrQLenPdf::51                     0                       # What write queue length does an incoming req see
system.mem_ctrls0.wrQLenPdf::52                     0                       # What write queue length does an incoming req see
system.mem_ctrls0.wrQLenPdf::53                     0                       # What write queue length does an incoming req see
system.mem_ctrls0.wrQLenPdf::54                     0                       # What write queue length does an incoming req see
system.mem_ctrls0.wrQLenPdf::55                     0                       # What write queue length does an incoming req see
system.mem_ctrls0.wrQLenPdf::56                     0                       # What write queue length does an incoming req see
system.mem_ctrls0.wrQLenPdf::57                     0                       # What write queue length does an incoming req see
system.mem_ctrls0.wrQLenPdf::58                     0                       # What write queue length does an incoming req see
system.mem_ctrls0.wrQLenPdf::59                     0                       # What write queue length does an incoming req see
system.mem_ctrls0.wrQLenPdf::60                     0                       # What write queue length does an incoming req see
system.mem_ctrls0.wrQLenPdf::61                     0                       # What write queue length does an incoming req see
system.mem_ctrls0.wrQLenPdf::62                     0                       # What write queue length does an incoming req see
system.mem_ctrls0.wrQLenPdf::63                     0                       # What write queue length does an incoming req see
system.mem_ctrls0.bytesPerActivate::samples      8972723                       # Bytes accessed per row activation
system.mem_ctrls0.bytesPerActivate::mean    94.526039                       # Bytes accessed per row activation
system.mem_ctrls0.bytesPerActivate::gmean    83.649344                       # Bytes accessed per row activation
system.mem_ctrls0.bytesPerActivate::stdev    60.161656                       # Bytes accessed per row activation
system.mem_ctrls0.bytesPerActivate::0-127      6305691     70.28%     70.28% # Bytes accessed per row activation
system.mem_ctrls0.bytesPerActivate::128-255      2296806     25.60%     95.87% # Bytes accessed per row activation
system.mem_ctrls0.bytesPerActivate::256-383       310652      3.46%     99.34% # Bytes accessed per row activation
system.mem_ctrls0.bytesPerActivate::384-511        41266      0.46%     99.80% # Bytes accessed per row activation
system.mem_ctrls0.bytesPerActivate::512-639        11572      0.13%     99.92% # Bytes accessed per row activation
system.mem_ctrls0.bytesPerActivate::640-767         3718      0.04%     99.97% # Bytes accessed per row activation
system.mem_ctrls0.bytesPerActivate::768-895         1489      0.02%     99.98% # Bytes accessed per row activation
system.mem_ctrls0.bytesPerActivate::896-1023          618      0.01%     99.99% # Bytes accessed per row activation
system.mem_ctrls0.bytesPerActivate::1024-1151          911      0.01%    100.00% # Bytes accessed per row activation
system.mem_ctrls0.bytesPerActivate::total      8972723                       # Bytes accessed per row activation
system.mem_ctrls0.rdPerTurnAround::samples       253613                       # Reads before turning the bus around for writes
system.mem_ctrls0.rdPerTurnAround::mean     34.972336                       # Reads before turning the bus around for writes
system.mem_ctrls0.rdPerTurnAround::stdev    56.303571                       # Reads before turning the bus around for writes
system.mem_ctrls0.rdPerTurnAround::0-1023       253611    100.00%    100.00% # Reads before turning the bus around for writes
system.mem_ctrls0.rdPerTurnAround::1024-2047            1      0.00%    100.00% # Reads before turning the bus around for writes
system.mem_ctrls0.rdPerTurnAround::27648-28671            1      0.00%    100.00% # Reads before turning the bus around for writes
system.mem_ctrls0.rdPerTurnAround::total       253613                       # Reads before turning the bus around for writes
system.mem_ctrls0.wrPerTurnAround::samples       253613                       # Writes before turning the bus around for reads
system.mem_ctrls0.wrPerTurnAround::mean     17.282233                       # Writes before turning the bus around for reads
system.mem_ctrls0.wrPerTurnAround::gmean    17.251866                       # Writes before turning the bus around for reads
system.mem_ctrls0.wrPerTurnAround::stdev     1.018562                       # Writes before turning the bus around for reads
system.mem_ctrls0.wrPerTurnAround::16           93243     36.77%     36.77% # Writes before turning the bus around for reads
system.mem_ctrls0.wrPerTurnAround::17            6221      2.45%     39.22% # Writes before turning the bus around for reads
system.mem_ctrls0.wrPerTurnAround::18          144936     57.15%     96.37% # Writes before turning the bus around for reads
system.mem_ctrls0.wrPerTurnAround::19            8066      3.18%     99.55% # Writes before turning the bus around for reads
system.mem_ctrls0.wrPerTurnAround::20             944      0.37%     99.92% # Writes before turning the bus around for reads
system.mem_ctrls0.wrPerTurnAround::21             141      0.06%     99.98% # Writes before turning the bus around for reads
system.mem_ctrls0.wrPerTurnAround::22              33      0.01%     99.99% # Writes before turning the bus around for reads
system.mem_ctrls0.wrPerTurnAround::23              19      0.01%    100.00% # Writes before turning the bus around for reads
system.mem_ctrls0.wrPerTurnAround::24               3      0.00%    100.00% # Writes before turning the bus around for reads
system.mem_ctrls0.wrPerTurnAround::25               6      0.00%    100.00% # Writes before turning the bus around for reads
system.mem_ctrls0.wrPerTurnAround::26               1      0.00%    100.00% # Writes before turning the bus around for reads
system.mem_ctrls0.wrPerTurnAround::total       253613                       # Writes before turning the bus around for reads
system.mem_ctrls0.totQLat                236051872175                       # Total ticks spent queuing
system.mem_ctrls0.totMemAccLat           402353928425                       # Total ticks spent from burst creation until serviced by the DRAM
system.mem_ctrls0.totBusLat               44347215000                       # Total ticks spent in databus transfers
system.mem_ctrls0.avgQLat                    26614.06                       # Average queueing delay per DRAM burst
system.mem_ctrls0.avgBusLat                   5000.00                       # Average bus latency per DRAM burst
system.mem_ctrls0.avgMemAccLat               45364.06                       # Average memory access latency per DRAM burst
system.mem_ctrls0.avgRdBW                      182.13                       # Average DRAM read bandwidth in MiByte/s
system.mem_ctrls0.avgWrBW                       90.00                       # Average achieved write bandwidth in MiByte/s
system.mem_ctrls0.avgRdBWSys                   182.13                       # Average system read bandwidth in MiByte/s
system.mem_ctrls0.avgWrBWSys                    90.01                       # Average system write bandwidth in MiByte/s
system.mem_ctrls0.peakBW                     12800.00                       # Theoretical peak bandwidth in MiByte/s
system.mem_ctrls0.busUtil                        2.13                       # Data bus utilization in percentage
system.mem_ctrls0.busUtilRead                    1.42                       # Data bus utilization in percentage for reads
system.mem_ctrls0.busUtilWrite                   0.70                       # Data bus utilization in percentage for writes
system.mem_ctrls0.avgRdQLen                      1.03                       # Average read queue length when enqueuing
system.mem_ctrls0.avgWrQLen                     24.74                       # Average write queue length when enqueuing
system.mem_ctrls0.readRowHits                 3024837                       # Number of row buffer hits during reads
system.mem_ctrls0.writeRowHits                1254878                       # Number of row buffer hits during writes
system.mem_ctrls0.readRowHitRate                34.10                       # Row buffer hit rate for reads
system.mem_ctrls0.writeRowHitRate               28.63                       # Row buffer hit rate for writes
system.mem_ctrls0.avgGap                    235173.61                       # Average gap between requests
system.mem_ctrls0.pageHitRate                   32.29                       # Row buffer hit rate, read and write combined
system.mem_ctrls0_0.actEnergy             32018680260                       # Energy for activate commands per rank (pJ)
system.mem_ctrls0_0.preEnergy             17018324565                       # Energy for precharge commands per rank (pJ)
system.mem_ctrls0_0.readEnergy            31666935300                       # Energy for read commands per rank (pJ)
system.mem_ctrls0_0.writeEnergy           11443863420                       # Energy for write commands per rank (pJ)
system.mem_ctrls0_0.refreshEnergy        245264101680.000061                       # Energy for refresh commands per rank (pJ)
system.mem_ctrls0_0.actBackEnergy        210452651460                       # Energy for active background per rank (pJ)
system.mem_ctrls0_0.preBackEnergy          6399092640                       # Energy for precharge background per rank (pJ)
system.mem_ctrls0_0.actPowerDownEnergy   1058955649530                       # Energy for active power-down per rank (pJ)
system.mem_ctrls0_0.prePowerDownEnergy   100988458080                       # Energy for precharge power-down per rank (pJ)
system.mem_ctrls0_0.selfRefreshEnergy     16087841190                       # Energy for self refresh per rank (pJ)
system.mem_ctrls0_0.totalEnergy          1730314173165                       # Total energy per rank (pJ)
system.mem_ctrls0_0.averagePower           555.187021                       # Core power per rank (mW)
system.mem_ctrls0_0.totalIdleTime        2638415152302                       # Total Idle time Per DRAM Rank
system.mem_ctrls0_0.memoryStateTime::IDLE   3903677340                       # Time in different power states
system.mem_ctrls0_0.memoryStateTime::REF 103787846000                       # Time in different power states
system.mem_ctrls0_0.memoryStateTime::SREF  53146413639                       # Time in different power states
system.mem_ctrls0_0.memoryStateTime::PRE_PDN 262996995246                       # Time in different power states
system.mem_ctrls0_0.memoryStateTime::ACT 370526192942                       # Time in different power states
system.mem_ctrls0_0.memoryStateTime::ACT_PDN 2322271825796                       # Time in different power states
system.mem_ctrls0_1.actEnergy             32046590520                       # Energy for activate commands per rank (pJ)
system.mem_ctrls0_1.preEnergy             17033159220                       # Energy for precharge commands per rank (pJ)
system.mem_ctrls0_1.readEnergy            31660887720                       # Energy for read commands per rank (pJ)
system.mem_ctrls0_1.writeEnergy           11435391360                       # Energy for write commands per rank (pJ)
system.mem_ctrls0_1.refreshEnergy        244972147680.000061                       # Energy for refresh commands per rank (pJ)
system.mem_ctrls0_1.actBackEnergy        209606598750                       # Energy for active background per rank (pJ)
system.mem_ctrls0_1.preBackEnergy          6381975840                       # Energy for precharge background per rank (pJ)
system.mem_ctrls0_1.actPowerDownEnergy   1060113179310                       # Energy for active power-down per rank (pJ)
system.mem_ctrls0_1.prePowerDownEnergy   100210634400                       # Energy for precharge power-down per rank (pJ)
system.mem_ctrls0_1.selfRefreshEnergy     16245489240                       # Energy for self refresh per rank (pJ)
system.mem_ctrls0_1.totalEnergy          1729729819290                       # Total energy per rank (pJ)
system.mem_ctrls0_1.averagePower           554.999524                       # Core power per rank (mW)
system.mem_ctrls0_1.totalIdleTime        2640296747147                       # Total Idle time Per DRAM Rank
system.mem_ctrls0_1.memoryStateTime::IDLE   3847640330                       # Time in different power states
system.mem_ctrls0_1.memoryStateTime::REF 103662558000                       # Time in different power states
system.mem_ctrls0_1.memoryStateTime::SREF  54522010695                       # Time in different power states
system.mem_ctrls0_1.memoryStateTime::PRE_PDN 260967303408                       # Time in different power states
system.mem_ctrls0_1.memoryStateTime::ACT 368826005486                       # Time in different power states
system.mem_ctrls0_1.memoryStateTime::ACT_PDN 2324807433044                       # Time in different power states
system.mem_ctrls1.pwrStateResidencyTicks::UNDEFINED 146593621268037                       # Cumulative time (in ticks) in various power states
system.mem_ctrls1.bytes_read::cpu.inst             64                       # Number of bytes read from this memory
system.mem_ctrls1.bytes_read::cpu.data             64                       # Number of bytes read from this memory
system.mem_ctrls1.bytes_read::switch_cpus.inst        20288                       # Number of bytes read from this memory
system.mem_ctrls1.bytes_read::switch_cpus.data    482228096                       # Number of bytes read from this memory
system.mem_ctrls1.bytes_read::switch_cpus_1.inst         6656                       # Number of bytes read from this memory
system.mem_ctrls1.bytes_read::switch_cpus_1.data     85384256                       # Number of bytes read from this memory
system.mem_ctrls1.bytes_read::total         567639424                       # Number of bytes read from this memory
system.mem_ctrls1.bytes_inst_read::cpu.inst           64                       # Number of instructions bytes read from this memory
system.mem_ctrls1.bytes_inst_read::switch_cpus.inst        20288                       # Number of instructions bytes read from this memory
system.mem_ctrls1.bytes_inst_read::switch_cpus_1.inst         6656                       # Number of instructions bytes read from this memory
system.mem_ctrls1.bytes_inst_read::total        27008                       # Number of instructions bytes read from this memory
system.mem_ctrls1.bytes_written::writebacks    280499712                       # Number of bytes written to this memory
system.mem_ctrls1.bytes_written::total      280499712                       # Number of bytes written to this memory
system.mem_ctrls1.num_reads::cpu.inst               1                       # Number of read requests responded to by this memory
system.mem_ctrls1.num_reads::cpu.data               1                       # Number of read requests responded to by this memory
system.mem_ctrls1.num_reads::switch_cpus.inst          317                       # Number of read requests responded to by this memory
system.mem_ctrls1.num_reads::switch_cpus.data      7534814                       # Number of read requests responded to by this memory
system.mem_ctrls1.num_reads::switch_cpus_1.inst          104                       # Number of read requests responded to by this memory
system.mem_ctrls1.num_reads::switch_cpus_1.data      1334129                       # Number of read requests responded to by this memory
system.mem_ctrls1.num_reads::total            8869366                       # Number of read requests responded to by this memory
system.mem_ctrls1.num_writes::writebacks      4382808                       # Number of write requests responded to by this memory
system.mem_ctrls1.num_writes::total           4382808                       # Number of write requests responded to by this memory
system.mem_ctrls1.bw_read::cpu.inst                21                       # Total read bandwidth from this memory (bytes/s)
system.mem_ctrls1.bw_read::cpu.data                21                       # Total read bandwidth from this memory (bytes/s)
system.mem_ctrls1.bw_read::switch_cpus.inst         6510                       # Total read bandwidth from this memory (bytes/s)
system.mem_ctrls1.bw_read::switch_cpus.data    154727266                       # Total read bandwidth from this memory (bytes/s)
system.mem_ctrls1.bw_read::switch_cpus_1.inst         2136                       # Total read bandwidth from this memory (bytes/s)
system.mem_ctrls1.bw_read::switch_cpus_1.data     27396314                       # Total read bandwidth from this memory (bytes/s)
system.mem_ctrls1.bw_read::total            182132267                       # Total read bandwidth from this memory (bytes/s)
system.mem_ctrls1.bw_inst_read::cpu.inst           21                       # Instruction read bandwidth from this memory (bytes/s)
system.mem_ctrls1.bw_inst_read::switch_cpus.inst         6510                       # Instruction read bandwidth from this memory (bytes/s)
system.mem_ctrls1.bw_inst_read::switch_cpus_1.inst         2136                       # Instruction read bandwidth from this memory (bytes/s)
system.mem_ctrls1.bw_inst_read::total            8666                       # Instruction read bandwidth from this memory (bytes/s)
system.mem_ctrls1.bw_write::writebacks       90000881                       # Write bandwidth from this memory (bytes/s)
system.mem_ctrls1.bw_write::total            90000881                       # Write bandwidth from this memory (bytes/s)
system.mem_ctrls1.bw_total::writebacks       90000881                       # Total bandwidth to/from this memory (bytes/s)
system.mem_ctrls1.bw_total::cpu.inst               21                       # Total bandwidth to/from this memory (bytes/s)
system.mem_ctrls1.bw_total::cpu.data               21                       # Total bandwidth to/from this memory (bytes/s)
system.mem_ctrls1.bw_total::switch_cpus.inst         6510                       # Total bandwidth to/from this memory (bytes/s)
system.mem_ctrls1.bw_total::switch_cpus.data    154727266                       # Total bandwidth to/from this memory (bytes/s)
system.mem_ctrls1.bw_total::switch_cpus_1.inst         2136                       # Total bandwidth to/from this memory (bytes/s)
system.mem_ctrls1.bw_total::switch_cpus_1.data     27396314                       # Total bandwidth to/from this memory (bytes/s)
system.mem_ctrls1.bw_total::total           272133148                       # Total bandwidth to/from this memory (bytes/s)
system.mem_ctrls1.readReqs                    8869366                       # Number of read requests accepted
system.mem_ctrls1.writeReqs                   4382808                       # Number of write requests accepted
system.mem_ctrls1.readBursts                  8869366                       # Number of DRAM read bursts, including those serviced by the write queue
system.mem_ctrls1.writeBursts                 4382808                       # Number of DRAM write bursts, including those merged in the write queue
system.mem_ctrls1.bytesReadDRAM             567637824                       # Total number of bytes read from DRAM
system.mem_ctrls1.bytesReadWrQ                   1600                       # Total number of bytes read from write queue
system.mem_ctrls1.bytesWritten              280497920                       # Total number of bytes written to DRAM
system.mem_ctrls1.bytesReadSys              567639424                       # Total read bytes from the system interface side
system.mem_ctrls1.bytesWrittenSys           280499712                       # Total written bytes from the system interface side
system.mem_ctrls1.servicedByWrQ                    25                       # Number of DRAM read bursts serviced by the write queue
system.mem_ctrls1.mergedWrBursts                    0                       # Number of DRAM write bursts merged with an existing one
system.mem_ctrls1.neitherReadNorWriteReqs            0                       # Number of requests that are neither read nor write
system.mem_ctrls1.perBankRdBursts::0           553981                       # Per bank write bursts
system.mem_ctrls1.perBankRdBursts::1           552929                       # Per bank write bursts
system.mem_ctrls1.perBankRdBursts::2           553872                       # Per bank write bursts
system.mem_ctrls1.perBankRdBursts::3           556565                       # Per bank write bursts
system.mem_ctrls1.perBankRdBursts::4           555238                       # Per bank write bursts
system.mem_ctrls1.perBankRdBursts::5           553819                       # Per bank write bursts
system.mem_ctrls1.perBankRdBursts::6           554085                       # Per bank write bursts
system.mem_ctrls1.perBankRdBursts::7           554440                       # Per bank write bursts
system.mem_ctrls1.perBankRdBursts::8           556112                       # Per bank write bursts
system.mem_ctrls1.perBankRdBursts::9           552350                       # Per bank write bursts
system.mem_ctrls1.perBankRdBursts::10          551993                       # Per bank write bursts
system.mem_ctrls1.perBankRdBursts::11          554430                       # Per bank write bursts
system.mem_ctrls1.perBankRdBursts::12          555091                       # Per bank write bursts
system.mem_ctrls1.perBankRdBursts::13          555179                       # Per bank write bursts
system.mem_ctrls1.perBankRdBursts::14          555050                       # Per bank write bursts
system.mem_ctrls1.perBankRdBursts::15          554207                       # Per bank write bursts
system.mem_ctrls1.perBankWrBursts::0           275229                       # Per bank write bursts
system.mem_ctrls1.perBankWrBursts::1           274009                       # Per bank write bursts
system.mem_ctrls1.perBankWrBursts::2           273269                       # Per bank write bursts
system.mem_ctrls1.perBankWrBursts::3           274183                       # Per bank write bursts
system.mem_ctrls1.perBankWrBursts::4           274167                       # Per bank write bursts
system.mem_ctrls1.perBankWrBursts::5           274000                       # Per bank write bursts
system.mem_ctrls1.perBankWrBursts::6           273903                       # Per bank write bursts
system.mem_ctrls1.perBankWrBursts::7           273286                       # Per bank write bursts
system.mem_ctrls1.perBankWrBursts::8           273262                       # Per bank write bursts
system.mem_ctrls1.perBankWrBursts::9           272768                       # Per bank write bursts
system.mem_ctrls1.perBankWrBursts::10          273871                       # Per bank write bursts
system.mem_ctrls1.perBankWrBursts::11          275345                       # Per bank write bursts
system.mem_ctrls1.perBankWrBursts::12          274200                       # Per bank write bursts
system.mem_ctrls1.perBankWrBursts::13          273010                       # Per bank write bursts
system.mem_ctrls1.perBankWrBursts::14          273367                       # Per bank write bursts
system.mem_ctrls1.perBankWrBursts::15          274911                       # Per bank write bursts
system.mem_ctrls1.numRdRetry                        0                       # Number of times read queue was full causing retry
system.mem_ctrls1.numWrRetry                        0                       # Number of times write queue was full causing retry
system.mem_ctrls1.totGap                 3116632651929                       # Total gap between requests
system.mem_ctrls1.readPktSize::0                    0                       # Read request sizes (log2)
system.mem_ctrls1.readPktSize::1                    0                       # Read request sizes (log2)
system.mem_ctrls1.readPktSize::2                    0                       # Read request sizes (log2)
system.mem_ctrls1.readPktSize::3                    0                       # Read request sizes (log2)
system.mem_ctrls1.readPktSize::4                    0                       # Read request sizes (log2)
system.mem_ctrls1.readPktSize::5                    0                       # Read request sizes (log2)
system.mem_ctrls1.readPktSize::6              8869366                       # Read request sizes (log2)
system.mem_ctrls1.writePktSize::0                   0                       # Write request sizes (log2)
system.mem_ctrls1.writePktSize::1                   0                       # Write request sizes (log2)
system.mem_ctrls1.writePktSize::2                   0                       # Write request sizes (log2)
system.mem_ctrls1.writePktSize::3                   0                       # Write request sizes (log2)
system.mem_ctrls1.writePktSize::4                   0                       # Write request sizes (log2)
system.mem_ctrls1.writePktSize::5                   0                       # Write request sizes (log2)
system.mem_ctrls1.writePktSize::6             4382808                       # Write request sizes (log2)
system.mem_ctrls1.rdQLenPdf::0                8417642                       # What read queue length does an incoming req see
system.mem_ctrls1.rdQLenPdf::1                 329883                       # What read queue length does an incoming req see
system.mem_ctrls1.rdQLenPdf::2                 105795                       # What read queue length does an incoming req see
system.mem_ctrls1.rdQLenPdf::3                  16021                       # What read queue length does an incoming req see
system.mem_ctrls1.rdQLenPdf::4                      0                       # What read queue length does an incoming req see
system.mem_ctrls1.rdQLenPdf::5                      0                       # What read queue length does an incoming req see
system.mem_ctrls1.rdQLenPdf::6                      0                       # What read queue length does an incoming req see
system.mem_ctrls1.rdQLenPdf::7                      0                       # What read queue length does an incoming req see
system.mem_ctrls1.rdQLenPdf::8                      0                       # What read queue length does an incoming req see
system.mem_ctrls1.rdQLenPdf::9                      0                       # What read queue length does an incoming req see
system.mem_ctrls1.rdQLenPdf::10                     0                       # What read queue length does an incoming req see
system.mem_ctrls1.rdQLenPdf::11                     0                       # What read queue length does an incoming req see
system.mem_ctrls1.rdQLenPdf::12                     0                       # What read queue length does an incoming req see
system.mem_ctrls1.rdQLenPdf::13                     0                       # What read queue length does an incoming req see
system.mem_ctrls1.rdQLenPdf::14                     0                       # What read queue length does an incoming req see
system.mem_ctrls1.rdQLenPdf::15                     0                       # What read queue length does an incoming req see
system.mem_ctrls1.rdQLenPdf::16                     0                       # What read queue length does an incoming req see
system.mem_ctrls1.rdQLenPdf::17                     0                       # What read queue length does an incoming req see
system.mem_ctrls1.rdQLenPdf::18                     0                       # What read queue length does an incoming req see
system.mem_ctrls1.rdQLenPdf::19                     0                       # What read queue length does an incoming req see
system.mem_ctrls1.rdQLenPdf::20                     0                       # What read queue length does an incoming req see
system.mem_ctrls1.rdQLenPdf::21                     0                       # What read queue length does an incoming req see
system.mem_ctrls1.rdQLenPdf::22                     0                       # What read queue length does an incoming req see
system.mem_ctrls1.rdQLenPdf::23                     0                       # What read queue length does an incoming req see
system.mem_ctrls1.rdQLenPdf::24                     0                       # What read queue length does an incoming req see
system.mem_ctrls1.rdQLenPdf::25                     0                       # What read queue length does an incoming req see
system.mem_ctrls1.rdQLenPdf::26                     0                       # What read queue length does an incoming req see
system.mem_ctrls1.rdQLenPdf::27                     0                       # What read queue length does an incoming req see
system.mem_ctrls1.rdQLenPdf::28                     0                       # What read queue length does an incoming req see
system.mem_ctrls1.rdQLenPdf::29                     0                       # What read queue length does an incoming req see
system.mem_ctrls1.rdQLenPdf::30                     0                       # What read queue length does an incoming req see
system.mem_ctrls1.rdQLenPdf::31                     0                       # What read queue length does an incoming req see
system.mem_ctrls1.wrQLenPdf::0                      2                       # What write queue length does an incoming req see
system.mem_ctrls1.wrQLenPdf::1                      2                       # What write queue length does an incoming req see
system.mem_ctrls1.wrQLenPdf::2                      2                       # What write queue length does an incoming req see
system.mem_ctrls1.wrQLenPdf::3                      2                       # What write queue length does an incoming req see
system.mem_ctrls1.wrQLenPdf::4                      2                       # What write queue length does an incoming req see
system.mem_ctrls1.wrQLenPdf::5                      2                       # What write queue length does an incoming req see
system.mem_ctrls1.wrQLenPdf::6                      2                       # What write queue length does an incoming req see
system.mem_ctrls1.wrQLenPdf::7                      2                       # What write queue length does an incoming req see
system.mem_ctrls1.wrQLenPdf::8                      2                       # What write queue length does an incoming req see
system.mem_ctrls1.wrQLenPdf::9                      2                       # What write queue length does an incoming req see
system.mem_ctrls1.wrQLenPdf::10                     2                       # What write queue length does an incoming req see
system.mem_ctrls1.wrQLenPdf::11                     2                       # What write queue length does an incoming req see
system.mem_ctrls1.wrQLenPdf::12                     2                       # What write queue length does an incoming req see
system.mem_ctrls1.wrQLenPdf::13                     2                       # What write queue length does an incoming req see
system.mem_ctrls1.wrQLenPdf::14                     2                       # What write queue length does an incoming req see
system.mem_ctrls1.wrQLenPdf::15                153215                       # What write queue length does an incoming req see
system.mem_ctrls1.wrQLenPdf::16                160552                       # What write queue length does an incoming req see
system.mem_ctrls1.wrQLenPdf::17                246044                       # What write queue length does an incoming req see
system.mem_ctrls1.wrQLenPdf::18                253315                       # What write queue length does an incoming req see
system.mem_ctrls1.wrQLenPdf::19                254313                       # What write queue length does an incoming req see
system.mem_ctrls1.wrQLenPdf::20                254552                       # What write queue length does an incoming req see
system.mem_ctrls1.wrQLenPdf::21                254585                       # What write queue length does an incoming req see
system.mem_ctrls1.wrQLenPdf::22                254754                       # What write queue length does an incoming req see
system.mem_ctrls1.wrQLenPdf::23                254929                       # What write queue length does an incoming req see
system.mem_ctrls1.wrQLenPdf::24                255211                       # What write queue length does an incoming req see
system.mem_ctrls1.wrQLenPdf::25                255384                       # What write queue length does an incoming req see
system.mem_ctrls1.wrQLenPdf::26                255059                       # What write queue length does an incoming req see
system.mem_ctrls1.wrQLenPdf::27                254905                       # What write queue length does an incoming req see
system.mem_ctrls1.wrQLenPdf::28                255019                       # What write queue length does an incoming req see
system.mem_ctrls1.wrQLenPdf::29                255429                       # What write queue length does an incoming req see
system.mem_ctrls1.wrQLenPdf::30                257281                       # What write queue length does an incoming req see
system.mem_ctrls1.wrQLenPdf::31                254102                       # What write queue length does an incoming req see
system.mem_ctrls1.wrQLenPdf::32                253830                       # What write queue length does an incoming req see
system.mem_ctrls1.wrQLenPdf::33                   239                       # What write queue length does an incoming req see
system.mem_ctrls1.wrQLenPdf::34                    48                       # What write queue length does an incoming req see
system.mem_ctrls1.wrQLenPdf::35                     8                       # What write queue length does an incoming req see
system.mem_ctrls1.wrQLenPdf::36                     3                       # What write queue length does an incoming req see
system.mem_ctrls1.wrQLenPdf::37                     1                       # What write queue length does an incoming req see
system.mem_ctrls1.wrQLenPdf::38                     0                       # What write queue length does an incoming req see
system.mem_ctrls1.wrQLenPdf::39                     0                       # What write queue length does an incoming req see
system.mem_ctrls1.wrQLenPdf::40                     0                       # What write queue length does an incoming req see
system.mem_ctrls1.wrQLenPdf::41                     0                       # What write queue length does an incoming req see
system.mem_ctrls1.wrQLenPdf::42                     0                       # What write queue length does an incoming req see
system.mem_ctrls1.wrQLenPdf::43                     0                       # What write queue length does an incoming req see
system.mem_ctrls1.wrQLenPdf::44                     0                       # What write queue length does an incoming req see
system.mem_ctrls1.wrQLenPdf::45                     0                       # What write queue length does an incoming req see
system.mem_ctrls1.wrQLenPdf::46                     0                       # What write queue length does an incoming req see
system.mem_ctrls1.wrQLenPdf::47                     0                       # What write queue length does an incoming req see
system.mem_ctrls1.wrQLenPdf::48                     0                       # What write queue length does an incoming req see
system.mem_ctrls1.wrQLenPdf::49                     0                       # What write queue length does an incoming req see
system.mem_ctrls1.wrQLenPdf::50                     0                       # What write queue length does an incoming req see
system.mem_ctrls1.wrQLenPdf::51                     0                       # What write queue length does an incoming req see
system.mem_ctrls1.wrQLenPdf::52                     0                       # What write queue length does an incoming req see
system.mem_ctrls1.wrQLenPdf::53                     0                       # What write queue length does an incoming req see
system.mem_ctrls1.wrQLenPdf::54                     0                       # What write queue length does an incoming req see
system.mem_ctrls1.wrQLenPdf::55                     0                       # What write queue length does an incoming req see
system.mem_ctrls1.wrQLenPdf::56                     0                       # What write queue length does an incoming req see
system.mem_ctrls1.wrQLenPdf::57                     0                       # What write queue length does an incoming req see
system.mem_ctrls1.wrQLenPdf::58                     0                       # What write queue length does an incoming req see
system.mem_ctrls1.wrQLenPdf::59                     0                       # What write queue length does an incoming req see
system.mem_ctrls1.wrQLenPdf::60                     0                       # What write queue length does an incoming req see
system.mem_ctrls1.wrQLenPdf::61                     0                       # What write queue length does an incoming req see
system.mem_ctrls1.wrQLenPdf::62                     0                       # What write queue length does an incoming req see
system.mem_ctrls1.wrQLenPdf::63                     0                       # What write queue length does an incoming req see
system.mem_ctrls1.bytesPerActivate::samples      8973594                       # Bytes accessed per row activation
system.mem_ctrls1.bytesPerActivate::mean    94.514468                       # Bytes accessed per row activation
system.mem_ctrls1.bytesPerActivate::gmean    83.637587                       # Bytes accessed per row activation
system.mem_ctrls1.bytesPerActivate::stdev    60.167750                       # Bytes accessed per row activation
system.mem_ctrls1.bytesPerActivate::0-127      6308016     70.30%     70.30% # Bytes accessed per row activation
system.mem_ctrls1.bytesPerActivate::128-255      2295028     25.58%     95.87% # Bytes accessed per row activation
system.mem_ctrls1.bytesPerActivate::256-383       311186      3.47%     99.34% # Bytes accessed per row activation
system.mem_ctrls1.bytesPerActivate::384-511        40933      0.46%     99.79% # Bytes accessed per row activation
system.mem_ctrls1.bytesPerActivate::512-639        11617      0.13%     99.92% # Bytes accessed per row activation
system.mem_ctrls1.bytesPerActivate::640-767         3768      0.04%     99.97% # Bytes accessed per row activation
system.mem_ctrls1.bytesPerActivate::768-895         1550      0.02%     99.98% # Bytes accessed per row activation
system.mem_ctrls1.bytesPerActivate::896-1023          637      0.01%     99.99% # Bytes accessed per row activation
system.mem_ctrls1.bytesPerActivate::1024-1151          859      0.01%    100.00% # Bytes accessed per row activation
system.mem_ctrls1.bytesPerActivate::total      8973594                       # Bytes accessed per row activation
system.mem_ctrls1.rdPerTurnAround::samples       253615                       # Reads before turning the bus around for writes
system.mem_ctrls1.rdPerTurnAround::mean     34.971595                       # Reads before turning the bus around for writes
system.mem_ctrls1.rdPerTurnAround::stdev    56.197614                       # Reads before turning the bus around for writes
system.mem_ctrls1.rdPerTurnAround::0-1023       253613    100.00%    100.00% # Reads before turning the bus around for writes
system.mem_ctrls1.rdPerTurnAround::1024-2047            1      0.00%    100.00% # Reads before turning the bus around for writes
system.mem_ctrls1.rdPerTurnAround::27648-28671            1      0.00%    100.00% # Reads before turning the bus around for writes
system.mem_ctrls1.rdPerTurnAround::total       253615                       # Reads before turning the bus around for writes
system.mem_ctrls1.wrPerTurnAround::samples       253615                       # Writes before turning the bus around for reads
system.mem_ctrls1.wrPerTurnAround::mean     17.281233                       # Writes before turning the bus around for reads
system.mem_ctrls1.wrPerTurnAround::gmean    17.250814                       # Writes before turning the bus around for reads
system.mem_ctrls1.wrPerTurnAround::stdev     1.019509                       # Writes before turning the bus around for reads
system.mem_ctrls1.wrPerTurnAround::16           93386     36.82%     36.82% # Writes before turning the bus around for reads
system.mem_ctrls1.wrPerTurnAround::17            6318      2.49%     39.31% # Writes before turning the bus around for reads
system.mem_ctrls1.wrPerTurnAround::18          144624     57.03%     96.34% # Writes before turning the bus around for reads
system.mem_ctrls1.wrPerTurnAround::19            8071      3.18%     99.52% # Writes before turning the bus around for reads
system.mem_ctrls1.wrPerTurnAround::20            1014      0.40%     99.92% # Writes before turning the bus around for reads
system.mem_ctrls1.wrPerTurnAround::21             148      0.06%     99.98% # Writes before turning the bus around for reads
system.mem_ctrls1.wrPerTurnAround::22              29      0.01%     99.99% # Writes before turning the bus around for reads
system.mem_ctrls1.wrPerTurnAround::23              18      0.01%    100.00% # Writes before turning the bus around for reads
system.mem_ctrls1.wrPerTurnAround::24               4      0.00%    100.00% # Writes before turning the bus around for reads
system.mem_ctrls1.wrPerTurnAround::25               1      0.00%    100.00% # Writes before turning the bus around for reads
system.mem_ctrls1.wrPerTurnAround::27               1      0.00%    100.00% # Writes before turning the bus around for reads
system.mem_ctrls1.wrPerTurnAround::29               1      0.00%    100.00% # Writes before turning the bus around for reads
system.mem_ctrls1.wrPerTurnAround::total       253615                       # Writes before turning the bus around for reads
system.mem_ctrls1.totQLat                236493441062                       # Total ticks spent queuing
system.mem_ctrls1.totMemAccLat           402793584812                       # Total ticks spent from burst creation until serviced by the DRAM
system.mem_ctrls1.totBusLat               44346705000                       # Total ticks spent in databus transfers
system.mem_ctrls1.avgQLat                    26664.15                       # Average queueing delay per DRAM burst
system.mem_ctrls1.avgBusLat                   5000.00                       # Average bus latency per DRAM burst
system.mem_ctrls1.avgMemAccLat               45414.15                       # Average memory access latency per DRAM burst
system.mem_ctrls1.avgRdBW                      182.13                       # Average DRAM read bandwidth in MiByte/s
system.mem_ctrls1.avgWrBW                       90.00                       # Average achieved write bandwidth in MiByte/s
system.mem_ctrls1.avgRdBWSys                   182.13                       # Average system read bandwidth in MiByte/s
system.mem_ctrls1.avgWrBWSys                    90.00                       # Average system write bandwidth in MiByte/s
system.mem_ctrls1.peakBW                     12800.00                       # Theoretical peak bandwidth in MiByte/s
system.mem_ctrls1.busUtil                        2.13                       # Data bus utilization in percentage
system.mem_ctrls1.busUtilRead                    1.42                       # Data bus utilization in percentage for reads
system.mem_ctrls1.busUtilWrite                   0.70                       # Data bus utilization in percentage for writes
system.mem_ctrls1.avgRdQLen                      1.03                       # Average read queue length when enqueuing
system.mem_ctrls1.avgWrQLen                     24.76                       # Average write queue length when enqueuing
system.mem_ctrls1.readRowHits                 3024101                       # Number of row buffer hits during reads
system.mem_ctrls1.writeRowHits                1254419                       # Number of row buffer hits during writes
system.mem_ctrls1.readRowHitRate                34.10                       # Row buffer hit rate for reads
system.mem_ctrls1.writeRowHitRate               28.62                       # Row buffer hit rate for writes
system.mem_ctrls1.avgGap                    235178.97                       # Average gap between requests
system.mem_ctrls1.pageHitRate                   32.29                       # Row buffer hit rate, read and write combined
system.mem_ctrls1_0.actEnergy             32028119340                       # Energy for activate commands per rank (pJ)
system.mem_ctrls1_0.preEnergy             17023330170                       # Energy for precharge commands per rank (pJ)
system.mem_ctrls1_0.readEnergy            31665393060                       # Energy for read commands per rank (pJ)
system.mem_ctrls1_0.writeEnergy           11442480120                       # Energy for write commands per rank (pJ)
system.mem_ctrls1_0.refreshEnergy        245210013360.000061                       # Energy for refresh commands per rank (pJ)
system.mem_ctrls1_0.actBackEnergy        210472766190                       # Energy for active background per rank (pJ)
system.mem_ctrls1_0.preBackEnergy          6389431200                       # Energy for precharge background per rank (pJ)
system.mem_ctrls1_0.actPowerDownEnergy   1059184523910                       # Energy for active power-down per rank (pJ)
system.mem_ctrls1_0.prePowerDownEnergy   100643515680                       # Energy for precharge power-down per rank (pJ)
system.mem_ctrls1_0.selfRefreshEnergy     16155695445                       # Energy for self refresh per rank (pJ)
system.mem_ctrls1_0.totalEnergy          1730237517975                       # Total energy per rank (pJ)
system.mem_ctrls1_0.averagePower           555.162427                       # Core power per rank (mW)
system.mem_ctrls1_0.totalIdleTime        2638392702156                       # Total Idle time Per DRAM Rank
system.mem_ctrls1_0.memoryStateTime::IDLE   3894159717                       # Time in different power states
system.mem_ctrls1_0.memoryStateTime::REF 103764648000                       # Time in different power states
system.mem_ctrls1_0.memoryStateTime::SREF  53515674844                       # Time in different power states
system.mem_ctrls1_0.memoryStateTime::PRE_PDN 262094984965                       # Time in different power states
system.mem_ctrls1_0.memoryStateTime::ACT 370581355289                       # Time in different power states
system.mem_ctrls1_0.memoryStateTime::ACT_PDN 2322782128148                       # Time in different power states
system.mem_ctrls1_1.actEnergy             32043391800                       # Energy for activate commands per rank (pJ)
system.mem_ctrls1_1.preEnergy             17031459060                       # Energy for precharge commands per rank (pJ)
system.mem_ctrls1_1.readEnergy            31661701680                       # Energy for read commands per rank (pJ)
system.mem_ctrls1_1.writeEnergy           11435631480                       # Energy for write commands per rank (pJ)
system.mem_ctrls1_1.refreshEnergy        244972762320.000061                       # Energy for refresh commands per rank (pJ)
system.mem_ctrls1_1.actBackEnergy        209582878770                       # Energy for active background per rank (pJ)
system.mem_ctrls1_1.preBackEnergy          6374823840                       # Energy for precharge background per rank (pJ)
system.mem_ctrls1_1.actPowerDownEnergy   1059934994460                       # Energy for active power-down per rank (pJ)
system.mem_ctrls1_1.prePowerDownEnergy   100410413280                       # Energy for precharge power-down per rank (pJ)
system.mem_ctrls1_1.selfRefreshEnergy     16227934035                       # Energy for self refresh per rank (pJ)
system.mem_ctrls1_1.totalEnergy          1729700055525                       # Total energy per rank (pJ)
system.mem_ctrls1_1.averagePower           554.989975                       # Core power per rank (mW)
system.mem_ctrls1_1.totalIdleTime        2640364897003                       # Total Idle time Per DRAM Rank
system.mem_ctrls1_1.memoryStateTime::IDLE   3836398875                       # Time in different power states
system.mem_ctrls1_1.memoryStateTime::REF 103662728000                       # Time in different power states
system.mem_ctrls1_1.memoryStateTime::SREF  54462443842                       # Time in different power states
system.mem_ctrls1_1.memoryStateTime::PRE_PDN 261486777972                       # Time in different power states
system.mem_ctrls1_1.memoryStateTime::ACT 368768927085                       # Time in different power states
system.mem_ctrls1_1.memoryStateTime::ACT_PDN 2324415675189                       # Time in different power states
system.pwrStateResidencyTicks::UNDEFINED 146593621268037                       # Cumulative time (in ticks) in various power states
system.cpu.branchPred.lookups                       0                       # Number of BP lookups
system.cpu.branchPred.condPredicted                 0                       # Number of conditional branches predicted
system.cpu.branchPred.condIncorrect                 0                       # Number of conditional branches incorrect
system.cpu.branchPred.BTBLookups                    0                       # Number of BTB lookups
system.cpu.branchPred.BTBHits                       0                       # Number of BTB hits
system.cpu.branchPred.BTBCorrect                    0                       # Number of correct BTB predictions (this stat may not work properly.
system.cpu.branchPred.BTBHitPct                   nan                       # BTB Hit Percentage
system.cpu.branchPred.usedRAS                       0                       # Number of times the RAS was used to get a target.
system.cpu.branchPred.RASInCorrect                  0                       # Number of incorrect RAS predictions.
system.cpu.branchPred.indirectLookups               0                       # Number of indirect predictor lookups.
system.cpu.branchPred.indirectHits                  0                       # Number of indirect target hits.
system.cpu.branchPred.indirectMisses                0                       # Number of indirect misses.
system.cpu.branchPredindirectMispredicted            0                       # Number of mispredicted indirect branches.
system.cpu_voltage_domain.voltage                   1                       # Voltage in Volts
system.cpu_clk_domain.clock                       333                       # Clock period in ticks
system.cpu.dtb.fetch_hits                           0                       # ITB hits
system.cpu.dtb.fetch_misses                         0                       # ITB misses
system.cpu.dtb.fetch_acv                            0                       # ITB acv
system.cpu.dtb.fetch_accesses                       0                       # ITB accesses
system.cpu.dtb.read_hits                           13                       # DTB read hits
system.cpu.dtb.read_misses                          0                       # DTB read misses
system.cpu.dtb.read_acv                             0                       # DTB read access violations
system.cpu.dtb.read_accesses                       13                       # DTB read accesses
system.cpu.dtb.write_hits                           0                       # DTB write hits
system.cpu.dtb.write_misses                         0                       # DTB write misses
system.cpu.dtb.write_acv                            0                       # DTB write access violations
system.cpu.dtb.write_accesses                       0                       # DTB write accesses
system.cpu.dtb.data_hits                           13                       # DTB hits
system.cpu.dtb.data_misses                          0                       # DTB misses
system.cpu.dtb.data_acv                             0                       # DTB access violations
system.cpu.dtb.data_accesses                       13                       # DTB accesses
system.cpu.itb.fetch_hits                           4                       # ITB hits
system.cpu.itb.fetch_misses                         0                       # ITB misses
system.cpu.itb.fetch_acv                            0                       # ITB acv
system.cpu.itb.fetch_accesses                       4                       # ITB accesses
system.cpu.itb.read_hits                            0                       # DTB read hits
system.cpu.itb.read_misses                          0                       # DTB read misses
system.cpu.itb.read_acv                             0                       # DTB read access violations
system.cpu.itb.read_accesses                        0                       # DTB read accesses
system.cpu.itb.write_hits                           0                       # DTB write hits
system.cpu.itb.write_misses                         0                       # DTB write misses
system.cpu.itb.write_acv                            0                       # DTB write access violations
system.cpu.itb.write_accesses                       0                       # DTB write accesses
system.cpu.itb.data_hits                            0                       # DTB hits
system.cpu.itb.data_misses                          0                       # DTB misses
system.cpu.itb.data_acv                             0                       # DTB access violations
system.cpu.itb.data_accesses                        0                       # DTB accesses
system.cpu.workload.num_syscalls                    0                       # Number of system calls
system.cpu.pwrStateResidencyTicks::ON    3116632950963                       # Cumulative time (in ticks) in various power states
system.cpu.numCycles                              741                       # number of cpu cycles simulated
system.cpu.numWorkItemsStarted                      0                       # number of work items this cpu started
system.cpu.numWorkItemsCompleted                    0                       # number of work items this cpu completed
system.cpu.fetch.icacheStallCycles                 51                       # Number of cycles fetch is stalled on an Icache miss
system.cpu.fetch.Insts                             23                       # Number of instructions fetch has processed
system.cpu.fetch.Cycles                             3                       # Number of cycles fetch has run and was not squashing or blocked
system.cpu.fetch.SquashCycles                       3                       # Number of cycles fetch has spent squashing
system.cpu.fetch.PendingDrainCycles                 7                       # Number of cycles fetch has spent waiting on pipes to drain
system.cpu.fetch.CacheLines                         4                       # Number of cache lines fetched
system.cpu.fetch.IcacheSquashes                     2                       # Number of outstanding Icache misses that were squashed
system.cpu.fetch.rateDist::samples                 62                       # Number of instructions fetched each cycle (Total)
system.cpu.fetch.rateDist::mean              0.370968                       # Number of instructions fetched each cycle (Total)
[...]
system.switch_cpus_1.iq.fu_busy_rate         0.055070                       # FU busy rate (busy events/executed inst)
system.switch_cpus_1.iq.int_inst_queue_reads    687246703                       # Number of integer instruction queue reads
system.switch_cpus_1.iq.int_inst_queue_writes     79842144                       # Number of integer instruction queue writes
system.switch_cpus_1.iq.int_inst_queue_wakeup_accesses     72913804                       # Number of integer instruction queue wakeup accesses
system.switch_cpus_1.iq.fp_inst_queue_reads    313208802                       # Number of floating instruction queue reads
system.switch_cpus_1.iq.fp_inst_queue_writes    167481438                       # Number of floating instruction queue writes
system.switch_cpus_1.iq.fp_inst_queue_wakeup_accesses    142530274                       # Number of floating instruction queue wakeup accesses
system.switch_cpus_1.iq.int_alu_accesses     81281279                       # Number of integer alu accesses
system.switch_cpus_1.iq.fp_alu_accesses     160107927                       # Number of floating point alu accesses
system.switch_cpus_1.iew.lsq.thread0.forwLoads       562033                       # Number of loads that had data forwarded from stores
system.switch_cpus_1.iew.lsq.thread0.invAddrLoads            0                       # Number of loads ignored due to an invalid address
system.switch_cpus_1.iew.lsq.thread0.squashedLoads      9698998                       # Number of loads squashed
system.switch_cpus_1.iew.lsq.thread0.ignoredResponses           35                       # Number of memory responses ignored because the instruction is squashed
system.switch_cpus_1.iew.lsq.thread0.memOrderViolation          529                       # Number of memory ordering violations
system.switch_cpus_1.iew.lsq.thread0.squashedStores      1086804                       # Number of stores squashed
system.switch_cpus_1.iew.lsq.thread0.invAddrSwpfs            0                       # Number of software prefetches ignored due to an invalid address
system.switch_cpus_1.iew.lsq.thread0.blockedLoads            0                       # Number of blocked loads due to partial load-store forwarding
system.switch_cpus_1.iew.lsq.thread0.rescheduledLoads            0                       # Number of loads that were rescheduled
system.switch_cpus_1.iew.lsq.thread0.cacheBlocked     11950357                       # Number of times an access to memory failed due to the cache being blocked
system.switch_cpus_1.iew.iewIdleCycles              0                       # Number of cycles IEW is idle
system.switch_cpus_1.iew.iewSquashCycles       306916                       # Number of cycles IEW is squashing
system.switch_cpus_1.iew.iewBlockCycles      12784780                       # Number of cycles IEW is blocking
system.switch_cpus_1.iew.iewUnblockCycles    159708885                       # Number of cycles IEW is unblocking
system.switch_cpus_1.iew.iewDispatchedInsts    223847604                       # Number of instructions dispatched to IQ
system.switch_cpus_1.iew.iewDispSquashedInsts         1899                       # Number of squashed instructions skipped by dispatch
system.switch_cpus_1.iew.iewDispLoadInsts     93114604                       # Number of dispatched load instructions
system.switch_cpus_1.iew.iewDispStoreInsts     11679251                       # Number of dispatched store instructions
system.switch_cpus_1.iew.iewDispNonSpecInsts            0                       # Number of dispatched non-speculative instructions
system.switch_cpus_1.iew.iewIQFullEvents        21455                       # Number of times the IQ has become full, causing a stall
system.switch_cpus_1.iew.iewLSQFullEvents    159659959                       # Number of times the LSQ has become full, causing a stall
system.switch_cpus_1.iew.memOrderViolationEvents          529                       # Number of memory order violations
system.switch_cpus_1.iew.predictedTakenIncorrect         3860                       # Number of branches that were predicted taken incorrectly
system.switch_cpus_1.iew.predictedNotTakenIncorrect          460                       # Number of branches that were predicted not taken incorrectly
system.switch_cpus_1.iew.branchMispredicts         4320                       # Number of branch mispredicts detected at execute
system.switch_cpus_1.iew.iewExecutedInsts    228721571                       # Number of executed instructions
system.switch_cpus_1.iew.iewExecLoadInsts    104313897                       # Number of load instructions executed
system.switch_cpus_1.iew.iewExecSquashedInsts        68280                       # Number of squashed instructions skipped in execute
system.switch_cpus_1.iew.exec_swp                   0                       # number of swp insts executed
system.switch_cpus_1.iew.exec_nop              186046                       # number of nop insts executed
system.switch_cpus_1.iew.exec_refs          115035260                       # number of memory reference insts executed
system.switch_cpus_1.iew.exec_branches        1994189                       # Number of branches executed
system.switch_cpus_1.iew.exec_stores         10721363                       # Number of stores executed
system.switch_cpus_1.iew.exec_rate           0.431570                       # Inst execution rate
system.switch_cpus_1.iew.wb_sent            216530710                       # cumulative count of insts sent to commit
system.switch_cpus_1.iew.wb_count           215444078                       # cumulative count of insts written-back
system.switch_cpus_1.iew.wb_producers       142965897                       # num instructions producing a value
system.switch_cpus_1.iew.wb_consumers       149841946                       # num instructions consuming a value
system.switch_cpus_1.iew.wb_rate             0.406517                       # insts written-back per cycle
system.switch_cpus_1.iew.wb_fanout           0.954111                       # average fanout of values written-back
system.switch_cpus_1.commit.commitSquashedInsts     22579622                       # The number of squashed insts skipped by commit
system.switch_cpus_1.commit.branchMispredicts         4272                       # The number of times a branch was mispredicted
system.switch_cpus_1.commit.committed_per_cycle::samples    526963509                       # Number of insts commited each cycle
system.switch_cpus_1.commit.committed_per_cycle::mean     0.379885                       # Number of insts commited each cycle
system.switch_cpus_1.commit.committed_per_cycle::stdev     1.545681                       # Number of insts commited each cycle
system.switch_cpus_1.commit.committed_per_cycle::underflows            0      0.00%      0.00% # Number of insts commited each cycle
system.switch_cpus_1.commit.committed_per_cycle::0    483796208     91.81%     91.81% # Number of insts commited each cycle
system.switch_cpus_1.commit.committed_per_cycle::1     12547094      2.38%     94.19% # Number of insts commited each cycle
system.switch_cpus_1.commit.committed_per_cycle::2      4318892      0.82%     95.01% # Number of insts commited each cycle
system.switch_cpus_1.commit.committed_per_cycle::3      2639559      0.50%     95.51% # Number of insts commited each cycle
system.switch_cpus_1.commit.committed_per_cycle::4      2267164      0.43%     95.94% # Number of insts commited each cycle
system.switch_cpus_1.commit.committed_per_cycle::5      1620841      0.31%     96.25% # Number of insts commited each cycle
system.switch_cpus_1.commit.committed_per_cycle::6      1675172      0.32%     96.57% # Number of insts commited each cycle
system.switch_cpus_1.commit.committed_per_cycle::7       930565      0.18%     96.74% # Number of insts commited each cycle
system.switch_cpus_1.commit.committed_per_cycle::8     17168014      3.26%    100.00% # Number of insts commited each cycle
system.switch_cpus_1.commit.committed_per_cycle::overflows            0      0.00%    100.00% # Number of insts commited each cycle
system.switch_cpus_1.commit.committed_per_cycle::min_value            0                       # Number of insts commited each cycle
system.switch_cpus_1.commit.committed_per_cycle::max_value            8                       # Number of insts commited each cycle
system.switch_cpus_1.commit.committed_per_cycle::total    526963509                       # Number of insts commited each cycle
system.switch_cpus_1.commit.committedInsts    200185515                       # Number of instructions committed
system.switch_cpus_1.commit.committedOps    200185515                       # Number of ops (including micro ops) committed
system.switch_cpus_1.commit.swp_count               0                       # Number of s/w prefetches committed
system.switch_cpus_1.commit.refs             94008030                       # Number of memory references committed
system.switch_cpus_1.commit.loads            83415586                       # Number of loads committed
system.switch_cpus_1.commit.membars                 0                       # Number of memory barriers committed
system.switch_cpus_1.commit.branches          1780705                       # Number of branches committed
system.switch_cpus_1.commit.fp_insts        133556284                       # Number of committed floating point instructions.
system.switch_cpus_1.commit.int_insts       133992906                       # Number of committed integer instructions.
system.switch_cpus_1.commit.function_calls            0                       # Number of function calls committed.
system.switch_cpus_1.commit.op_class_0::No_OpClass       185513      0.09%      0.09% # Class of committed instruction
system.switch_cpus_1.commit.op_class_0::IntAlu     39964775     19.96%     20.06% # Class of committed instruction
system.switch_cpus_1.commit.op_class_0::IntMult        96303      0.05%     20.10% # Class of committed instruction
system.switch_cpus_1.commit.op_class_0::IntDiv            0      0.00%     20.10% # Class of committed instruction
system.switch_cpus_1.commit.op_class_0::FloatAdd     26372358     13.17%     33.28% # Class of committed instruction
system.switch_cpus_1.commit.op_class_0::FloatCmp            0      0.00%     33.28% # Class of committed instruction
system.switch_cpus_1.commit.op_class_0::FloatCvt            0      0.00%     33.28% # Class of committed instruction
system.switch_cpus_1.commit.op_class_0::FloatMult     39558536     19.76%     53.04% # Class of committed instruction
system.switch_cpus_1.commit.op_class_0::FloatMultAcc            0      0.00%     53.04% # Class of committed instruction
system.switch_cpus_1.commit.op_class_0::FloatDiv            0      0.00%     53.04% # Class of committed instruction
system.switch_cpus_1.commit.op_class_0::FloatMisc            0      0.00%     53.04% # Class of committed instruction
system.switch_cpus_1.commit.op_class_0::FloatSqrt            0      0.00%     53.04% # Class of committed instruction
system.switch_cpus_1.commit.op_class_0::SimdAdd            0      0.00%     53.04% # Class of committed instruction
system.switch_cpus_1.commit.op_class_0::SimdAddAcc            0      0.00%     53.04% # Class of committed instruction
system.switch_cpus_1.commit.op_class_0::SimdAlu            0      0.00%     53.04% # Class of committed instruction
system.switch_cpus_1.commit.op_class_0::SimdCmp            0      0.00%     53.04% # Class of committed instruction
system.switch_cpus_1.commit.op_class_0::SimdCvt            0      0.00%     53.04% # Class of committed instruction
system.switch_cpus_1.commit.op_class_0::SimdMisc            0      0.00%     53.04% # Class of committed instruction
system.switch_cpus_1.commit.op_class_0::SimdMult            0      0.00%     53.04% # Class of committed instruction
system.switch_cpus_1.commit.op_class_0::SimdMultAcc            0      0.00%     53.04% # Class of committed instruction
system.switch_cpus_1.commit.op_class_0::SimdShift            0      0.00%     53.04% # Class of committed instruction
system.switch_cpus_1.commit.op_class_0::SimdShiftAcc            0      0.00%     53.04% # Class of committed instruction
system.switch_cpus_1.commit.op_class_0::SimdSqrt            0      0.00%     53.04% # Class of committed instruction
system.switch_cpus_1.commit.op_class_0::SimdFloatAdd            0      0.00%     53.04% # Class of committed instruction
system.switch_cpus_1.commit.op_class_0::SimdFloatAlu            0      0.00%     53.04% # Class of committed instruction
system.switch_cpus_1.commit.op_class_0::SimdFloatCmp            0      0.00%     53.04% # Class of committed instruction
system.switch_cpus_1.commit.op_class_0::SimdFloatCvt            0      0.00%     53.04% # Class of committed instruction
system.switch_cpus_1.commit.op_class_0::SimdFloatDiv            0      0.00%     53.04% # Class of committed instruction
system.switch_cpus_1.commit.op_class_0::SimdFloatMisc            0      0.00%     53.04% # Class of committed instruction
system.switch_cpus_1.commit.op_class_0::SimdFloatMult            0      0.00%     53.04% # Class of committed instruction
system.switch_cpus_1.commit.op_class_0::SimdFloatMultAcc            0      0.00%     53.04% # Class of committed instruction
system.switch_cpus_1.commit.op_class_0::SimdFloatSqrt            0      0.00%     53.04% # Class of committed instruction
system.switch_cpus_1.commit.op_class_0::MemRead     24580982     12.28%     65.32% # Class of committed instruction
system.switch_cpus_1.commit.op_class_0::MemWrite      1801658      0.90%     66.22% # Class of committed instruction
system.switch_cpus_1.commit.op_class_0::FloatMemRead     58834604     29.39%     95.61% # Class of committed instruction
system.switch_cpus_1.commit.op_class_0::FloatMemWrite      8790786      4.39%    100.00% # Class of committed instruction
system.switch_cpus_1.commit.op_class_0::IprAccess            0      0.00%    100.00% # Class of committed instruction
system.switch_cpus_1.commit.op_class_0::InstPrefetch            0      0.00%    100.00% # Class of committed instruction
system.switch_cpus_1.commit.op_class_0::total    200185515                       # Class of committed instruction
system.switch_cpus_1.commit.bw_lim_events     17168014                       # number cycles where commit BW limit reached
system.switch_cpus_1.rob.rob_reads          728631759                       # The number of ROB reads
system.switch_cpus_1.rob.rob_writes         448488604                       # The number of ROB writes
system.switch_cpus_1.timesIdled                   371                       # Number of times that the entire CPU went into an idle state and unscheduled itself
system.switch_cpus_1.idleCycles                 54216                       # Total number of cycles that the CPU has spent unscheduled due to idling
system.switch_cpus_1.committedInsts         200000002                       # Number of Instructions Simulated
system.switch_cpus_1.committedOps           200000002                       # Number of Ops (including micro ops) Simulated
system.switch_cpus_1.cpi                     2.649880                       # CPI: Cycles Per Instruction
system.switch_cpus_1.cpi_total               2.649880                       # CPI: Total CPI of All Threads
system.switch_cpus_1.ipc                     0.377376                       # IPC: Instructions Per Cycle
system.switch_cpus_1.ipc_total               0.377376                       # IPC: Total IPC of All Threads
system.switch_cpus_1.int_regfile_reads      181606345                       # number of integer regfile reads
system.switch_cpus_1.int_regfile_writes      69118237                       # number of integer regfile writes
system.switch_cpus_1.fp_regfile_reads       147044153                       # number of floating regfile reads
system.switch_cpus_1.fp_regfile_writes      133636878                       # number of floating regfile writes
system.tol3bus.snoop_filter.tot_requests     39183396                       # Total number of requests made to the snoop filter.
system.tol3bus.snoop_filter.hit_single_requests     19589374                       # Number of requests hitting in the snoop filter with a single holder of the requested data.
system.tol3bus.snoop_filter.hit_multi_requests            0                       # Number of requests hitting in the snoop filter with multiple (>1) holders of the requested data.
system.tol3bus.snoop_filter.tot_snoops        1343960                       # Total number of snoops made to the snoop filter.
system.tol3bus.snoop_filter.hit_single_snoops      1343960                       # Number of snoops hitting in the snoop filter with a single holder of the requested data.
system.tol3bus.snoop_filter.hit_multi_snoops            0                       # Number of snoops hitting in the snoop filter with multiple (>1) holders of the requested data.
system.tol3bus.pwrStateResidencyTicks::UNDEFINED 146593621268037                       # Cumulative time (in ticks) in various power states
system.tol3bus.trans_dist::ReadResp          19456169                       # Transaction distribution
system.tol3bus.trans_dist::WritebackDirty     17801415                       # Transaction distribution
system.tol3bus.trans_dist::CleanEvict        20239110                       # Transaction distribution
system.tol3bus.trans_dist::UpgradeReq               6                       # Transaction distribution
system.tol3bus.trans_dist::UpgradeResp              6                       # Transaction distribution
system.tol3bus.trans_dist::ReadExReq           137853                       # Transaction distribution
system.tol3bus.trans_dist::ReadExResp          137853                       # Transaction distribution
system.tol3bus.trans_dist::ReadSharedReq     19456169                       # Transaction distribution
system.tol3bus.pkt_count_system.cpu.l2.mem_side::system.l3.cpu_side     58777424                       # Packet count per connected master and slave (bytes)
system.tol3bus.pkt_size_system.cpu.l2.mem_side::system.l3.cpu_side   1832295168                       # Cumulative packet size per connected master and slave (bytes)
system.tol3bus.snoops                        18451157                       # Total snoops (count)
system.tol3bus.snoopTraffic                 561012800                       # Total snoop traffic (bytes)
system.tol3bus.snoop_fanout::samples         38045185                       # Request fanout histogram
system.tol3bus.snoop_fanout::mean            0.035325                       # Request fanout histogram
system.tol3bus.snoop_fanout::stdev           0.184601                       # Request fanout histogram
system.tol3bus.snoop_fanout::underflows             0      0.00%      0.00% # Request fanout histogram
system.tol3bus.snoop_fanout::0               36701225     96.47%     96.47% # Request fanout histogram
system.tol3bus.snoop_fanout::1                1343960      3.53%    100.00% # Request fanout histogram
system.tol3bus.snoop_fanout::overflows              0      0.00%    100.00% # Request fanout histogram
system.tol3bus.snoop_fanout::min_value              0                       # Request fanout histogram
system.tol3bus.snoop_fanout::max_value              1                       # Request fanout histogram
system.tol3bus.snoop_fanout::total           38045185                       # Request fanout histogram
system.tol3bus.reqLayer0.occupancy        16056922338                       # Layer occupancy (ticks)
system.tol3bus.reqLayer0.utilization              0.5                       # Layer utilization (%)
system.tol3bus.respLayer0.occupancy       13049620650                       # Layer occupancy (ticks)
system.tol3bus.respLayer0.utilization             0.4                       # Layer utilization (%)

---------- End Simulation Statistics   ----------
