
---------- Begin Simulation Statistics ----------
sim_seconds                                  1.152450                       # Number of seconds simulated
sim_ticks                                1152450025038                       # Number of ticks simulated
final_tick                               18805791415968                       # Number of ticks from beginning of simulation (restored from checkpoints and never reset)
sim_freq                                 1000000000000                       # Frequency of simulated ticks
host_inst_rate                                 502723                       # Simulator instruction rate (inst/s)
host_op_rate                                   502723                       # Simulator op (including micro ops) rate (op/s)
host_tick_rate                              482802708                       # Simulator tick rate (ticks/s)
host_mem_usage                                2396272                       # Number of bytes of host memory used
host_seconds                                  2387.00                       # Real time elapsed on the host
sim_insts                                  1200000011                       # Number of instructions simulated
sim_ops                                    1200000011                       # Number of ops (including micro ops) simulated
system.voltage_domain.voltage                       1                       # Voltage in Volts
system.clk_domain.clock                          1000                       # Clock period in ticks
system.mem_ctrls0.pwrStateResidencyTicks::UNDEFINED 18805791415968                       # Cumulative time (in ticks) in various power states
system.mem_ctrls0.bytes_read::cpu.inst            192                       # Number of bytes read from this memory
system.mem_ctrls0.bytes_read::switch_cpus.inst       161344                       # Number of bytes read from this memory
system.mem_ctrls0.bytes_read::switch_cpus.data      7649152                       # Number of bytes read from this memory
system.mem_ctrls0.bytes_read::switch_cpus_1.inst        24704                       # Number of bytes read from this memory
system.mem_ctrls0.bytes_read::switch_cpus_1.data      1262336                       # Number of bytes read from this memory
system.mem_ctrls0.bytes_read::total           9097728                       # Number of bytes read from this memory
system.mem_ctrls0.bytes_inst_read::cpu.inst          192                       # Number of instructions bytes read from this memory
system.mem_ctrls0.bytes_inst_read::switch_cpus.inst       161344                       # Number of instructions bytes read from this memory
system.mem_ctrls0.bytes_inst_read::switch_cpus_1.inst        24704                       # Number of instructions bytes read from this memory
system.mem_ctrls0.bytes_inst_read::total       186240                       # Number of instructions bytes read from this memory
system.mem_ctrls0.bytes_written::writebacks      5377856                       # Number of bytes written to this memory
system.mem_ctrls0.bytes_written::total        5377856                       # Number of bytes written to this memory
system.mem_ctrls0.num_reads::cpu.inst               3                       # Number of read requests responded to by this memory
system.mem_ctrls0.num_reads::switch_cpus.inst         2521                       # Number of read requests responded to by this memory
system.mem_ctrls0.num_reads::switch_cpus.data       119518                       # Number of read requests responded to by this memory
system.mem_ctrls0.num_reads::switch_cpus_1.inst          386                       # Number of read requests responded to by this memory
system.mem_ctrls0.num_reads::switch_cpus_1.data        19724                       # Number of read requests responded to by this memory
system.mem_ctrls0.num_reads::total             142152                       # Number of read requests responded to by this memory
system.mem_ctrls0.num_writes::writebacks        84029                       # Number of write requests responded to by this memory
system.mem_ctrls0.num_writes::total             84029                       # Number of write requests responded to by this memory
system.mem_ctrls0.bw_read::cpu.inst               167                       # Total read bandwidth from this memory (bytes/s)
system.mem_ctrls0.bw_read::switch_cpus.inst       140001                       # Total read bandwidth from this memory (bytes/s)
system.mem_ctrls0.bw_read::switch_cpus.data      6637296                       # Total read bandwidth from this memory (bytes/s)
system.mem_ctrls0.bw_read::switch_cpus_1.inst        21436                       # Total read bandwidth from this memory (bytes/s)
system.mem_ctrls0.bw_read::switch_cpus_1.data      1095350                       # Total read bandwidth from this memory (bytes/s)
system.mem_ctrls0.bw_read::total              7894249                       # Total read bandwidth from this memory (bytes/s)
system.mem_ctrls0.bw_inst_read::cpu.inst          167                       # Instruction read bandwidth from this memory (bytes/s)
system.mem_ctrls0.bw_inst_read::switch_cpus.inst       140001                       # Instruction read bandwidth from this memory (bytes/s)
system.mem_ctrls0.bw_inst_read::switch_cpus_1.inst        21436                       # Instruction read bandwidth from this memory (bytes/s)
system.mem_ctrls0.bw_inst_read::total          161604                       # Instruction read bandwidth from this memory (bytes/s)
system.mem_ctrls0.bw_write::writebacks        4666455                       # Write bandwidth from this memory (bytes/s)
system.mem_ctrls0.bw_write::total             4666455                       # Write bandwidth from this memory (bytes/s)
system.mem_ctrls0.bw_total::writebacks        4666455                       # Total bandwidth to/from this memory (bytes/s)
system.mem_ctrls0.bw_total::cpu.inst              167                       # Total bandwidth to/from this memory (bytes/s)
system.mem_ctrls0.bw_total::switch_cpus.inst       140001                       # Total bandwidth to/from this memory (bytes/s)
system.mem_ctrls0.bw_total::switch_cpus.data      6637296                       # Total bandwidth to/from this memory (bytes/s)
system.mem_ctrls0.bw_total::switch_cpus_1.inst        21436                       # Total bandwidth to/from this memory (bytes/s)
system.mem_ctrls0.bw_total::switch_cpus_1.data      1095350                       # Total bandwidth to/from this memory (bytes/s)
system.mem_ctrls0.bw_total::total            12560704                       # Total bandwidth to/from this memory (bytes/s)
system.mem_ctrls0.readReqs                     142152                       # Number of read requests accepted
system.mem_ctrls0.writeReqs                     84029                       # Number of write requests accepted
system.mem_ctrls0.readBursts                   142152                       # Number of DRAM read bursts, including those serviced by the write queue
system.mem_ctrls0.writeBursts                   84029                       # Number of DRAM write bursts, including those merged in the write queue
system.mem_ctrls0.bytesReadDRAM               9095744                       # Total number of bytes read from DRAM
system.mem_ctrls0.bytesReadWrQ                   1984                       # Total number of bytes read from write queue
system.mem_ctrls0.bytesWritten                5376000                       # Total number of bytes written to DRAM
system.mem_ctrls0.bytesReadSys                9097728                       # Total read bytes from the system interface side
system.mem_ctrls0.bytesWrittenSys             5377856                       # Total written bytes from the system interface side
system.mem_ctrls0.servicedByWrQ                    31                       # Number of DRAM read bursts serviced by the write queue
system.mem_ctrls0.mergedWrBursts                    0                       # Number of DRAM write bursts merged with an existing one
system.mem_ctrls0.neitherReadNorWriteReqs            0                       # Number of requests that are neither read nor write
system.mem_ctrls0.perBankRdBursts::0             8713                       # Per bank write bursts
system.mem_ctrls0.perBankRdBursts::1             8899                       # Per bank write bursts
system.mem_ctrls0.perBankRdBursts::2             8960                       # Per bank write bursts
system.mem_ctrls0.perBankRdBursts::3             9388                       # Per bank write bursts
system.mem_ctrls0.perBankRdBursts::4             9229                       # Per bank write bursts
system.mem_ctrls0.perBankRdBursts::5             8846                       # Per bank write bursts
system.mem_ctrls0.perBankRdBursts::6             8536                       # Per bank write bursts
system.mem_ctrls0.perBankRdBursts::7             8660                       # Per bank write bursts
system.mem_ctrls0.perBankRdBursts::8             9213                       # Per bank write bursts
system.mem_ctrls0.perBankRdBursts::9             9294                       # Per bank write bursts
system.mem_ctrls0.perBankRdBursts::10            8772                       # Per bank write bursts
system.mem_ctrls0.perBankRdBursts::11            9094                       # Per bank write bursts
system.mem_ctrls0.perBankRdBursts::12            8763                       # Per bank write bursts
system.mem_ctrls0.perBankRdBursts::13            8725                       # Per bank write bursts
system.mem_ctrls0.perBankRdBursts::14            8612                       # Per bank write bursts
system.mem_ctrls0.perBankRdBursts::15            8417                       # Per bank write bursts
system.mem_ctrls0.perBankWrBursts::0             5395                       # Per bank write bursts
system.mem_ctrls0.perBankWrBursts::1             5476                       # Per bank write bursts
system.mem_ctrls0.perBankWrBursts::2             5229                       # Per bank write bursts
system.mem_ctrls0.perBankWrBursts::3             5435                       # Per bank write bursts
system.mem_ctrls0.perBankWrBursts::4             5276                       # Per bank write bursts
system.mem_ctrls0.perBankWrBursts::5             5164                       # Per bank write bursts
system.mem_ctrls0.perBankWrBursts::6             5045                       # Per bank write bursts
system.mem_ctrls0.perBankWrBursts::7             5019                       # Per bank write bursts
system.mem_ctrls0.perBankWrBursts::8             5171                       # Per bank write bursts
system.mem_ctrls0.perBankWrBursts::9             5241                       # Per bank write bursts
system.mem_ctrls0.perBankWrBursts::10            5319                       # Per bank write bursts
system.mem_ctrls0.perBankWrBursts::11            5673                       # Per bank write bursts
system.mem_ctrls0.perBankWrBursts::12            5329                       # Per bank write bursts
system.mem_ctrls0.perBankWrBursts::13            5103                       # Per bank write bursts
system.mem_ctrls0.perBankWrBursts::14            5001                       # Per bank write bursts
system.mem_ctrls0.perBankWrBursts::15            5124                       # Per bank write bursts
system.mem_ctrls0.numRdRetry                        0                       # Number of times read queue was full causing retry
system.mem_ctrls0.numWrRetry                        0                       # Number of times write queue was full causing retry
system.mem_ctrls0.totGap                 1152446520546                       # Total gap between requests
system.mem_ctrls0.readPktSize::0                    0                       # Read request sizes (log2)
system.mem_ctrls0.readPktSize::1                    0                       # Read request sizes (log2)
system.mem_ctrls0.readPktSize::2                    0                       # Read request sizes (log2)
system.mem_ctrls0.readPktSize::3                    0                       # Read request sizes (log2)
system.mem_ctrls0.readPktSize::4                    0                       # Read request sizes (log2)
system.mem_ctrls0.readPktSize::5                    0                       # Read request sizes (log2)
system.mem_ctrls0.readPktSize::6               142152                       # Read request sizes (log2)
system.mem_ctrls0.writePktSize::0                   0                       # Write request sizes (log2)
system.mem_ctrls0.writePktSize::1                   0                       # Write request sizes (log2)
system.mem_ctrls0.writePktSize::2                   0                       # Write request sizes (log2)
system.mem_ctrls0.writePktSize::3                   0                       # Write request sizes (log2)
system.mem_ctrls0.writePktSize::4                   0                       # Write request sizes (log2)
system.mem_ctrls0.writePktSize::5                   0                       # Write request sizes (log2)
system.mem_ctrls0.writePktSize::6               84029                       # Write request sizes (log2)
system.mem_ctrls0.rdQLenPdf::0                 140564                       # What read queue length does an incoming req see
system.mem_ctrls0.rdQLenPdf::1                   1515                       # What read queue length does an incoming req see
system.mem_ctrls0.rdQLenPdf::2                     39                       # What read queue length does an incoming req see
system.mem_ctrls0.rdQLenPdf::3                      1                       # What read queue length does an incoming req see
system.mem_ctrls0.rdQLenPdf::4                      1                       # What read queue length does an incoming req see
system.mem_ctrls0.rdQLenPdf::5                      1                       # What read queue length does an incoming req see
system.mem_ctrls0.rdQLenPdf::6                      0                       # What read queue length does an incoming req see
system.mem_ctrls0.rdQLenPdf::7                      0                       # What read queue length does an incoming req see
system.mem_ctrls0.rdQLenPdf::8                      0                       # What read queue length does an incoming req see
system.mem_ctrls0.rdQLenPdf::9                      0                       # What read queue length does an incoming req see
system.mem_ctrls0.rdQLenPdf::10                     0                       # What read queue length does an incoming req see
system.mem_ctrls0.rdQLenPdf::11                     0                       # What read queue length does an incoming req see
system.mem_ctrls0.rdQLenPdf::12                     0                       # What read queue length does an incoming req see
system.mem_ctrls0.rdQLenPdf::13                     0                       # What read queue length does an incoming req see
system.mem_ctrls0.rdQLenPdf::14                     0                       # What read queue length does an incoming req see
system.mem_ctrls0.rdQLenPdf::15                     0                       # What read queue length does an incoming req see
system.mem_ctrls0.rdQLenPdf::16                     0                       # What read queue length does an incoming req see
system.mem_ctrls0.rdQLenPdf::17                     0                       # What read queue length does an incoming req see
system.mem_ctrls0.rdQLenPdf::18                     0                       # What read queue length does an incoming req see
system.mem_ctrls0.rdQLenPdf::19                     0                       # What read queue length does an incoming req see
system.mem_ctrls0.rdQLenPdf::20                     0                       # What read queue length does an incoming req see
system.mem_ctrls0.rdQLenPdf::21                     0                       # What read queue length does an incoming req see
system.mem_ctrls0.rdQLenPdf::22                     0                       # What read queue length does an incoming req see
system.mem_ctrls0.rdQLenPdf::23                     0                       # What read queue length does an incoming req see
system.mem_ctrls0.rdQLenPdf::24                     0                       # What read queue length does an incoming req see
system.mem_ctrls0.rdQLenPdf::25                     0                       # What read queue length does an incoming req see
system.mem_ctrls0.rdQLenPdf::26                     0                       # What read queue length does an incoming req see
system.mem_ctrls0.rdQLenPdf::27                     0                       # What read queue length does an incoming req see
system.mem_ctrls0.rdQLenPdf::28                     0                       # What read queue length does an incoming req see
system.mem_ctrls0.rdQLenPdf::29                     0                       # What read queue length does an incoming req see
system.mem_ctrls0.rdQLenPdf::30                     0                       # What read queue length does an incoming req see
system.mem_ctrls0.rdQLenPdf::31                     0                       # What read queue length does an incoming req see
system.mem_ctrls0.wrQLenPdf::0                      2                       # What write queue length does an incoming req see
system.mem_ctrls0.wrQLenPdf::1                      2                       # What write queue length does an incoming req see
system.mem_ctrls0.wrQLenPdf::2                      2                       # What write queue length does an incoming req see
system.mem_ctrls0.wrQLenPdf::3                      2                       # What write queue length does an incoming req see
system.mem_ctrls0.wrQLenPdf::4                      2                       # What write queue length does an incoming req see
system.mem_ctrls0.wrQLenPdf::5                      2                       # What write queue length does an incoming req see
system.mem_ctrls0.wrQLenPdf::6                      2                       # What write queue length does an incoming req see
system.mem_ctrls0.wrQLenPdf::7                      2                       # What write queue length does an incoming req see
system.mem_ctrls0.wrQLenPdf::8                      2                       # What write queue length does an incoming req see
system.mem_ctrls0.wrQLenPdf::9                      2                       # What write queue length does an incoming req see
system.mem_ctrls0.wrQLenPdf::10                     2                       # What write queue length does an incoming req see
system.mem_ctrls0.wrQLenPdf::11                     2                       # What write queue length does an incoming req see
system.mem_ctrls0.wrQLenPdf::12                     2                       # What write queue length does an incoming req see
system.mem_ctrls0.wrQLenPdf::13                     2                       # What write queue length does an incoming req see
system.mem_ctrls0.wrQLenPdf::14                     2                       # What write queue length does an incoming req see
system.mem_ctrls0.wrQLenPdf::15                  4072                       # What write queue length does an incoming req see
system.mem_ctrls0.wrQLenPdf::16                  4130                       # What write queue length does an incoming req see
system.mem_ctrls0.wrQLenPdf::17                  4686                       # What write queue length does an incoming req see
system.mem_ctrls0.wrQLenPdf::18                  4730                       # What write queue length does an incoming req see
system.mem_ctrls0.wrQLenPdf::19                  4730                       # What write queue length does an incoming req see
system.mem_ctrls0.wrQLenPdf::20                  4723                       # What write queue length does an incoming req see
system.mem_ctrls0.wrQLenPdf::21                  4726                       # What write queue length does an incoming req see
system.mem_ctrls0.wrQLenPdf::22                  4746                       # What write queue length does an incoming req see
system.mem_ctrls0.wrQLenPdf::23                  4757                       # What write queue length does an incoming req see
system.mem_ctrls0.wrQLenPdf::24                  4733                       # What write queue length does an incoming req see
system.mem_ctrls0.wrQLenPdf::25                  4733                       # What write queue length does an incoming req see
system.mem_ctrls0.wrQLenPdf::26                  4735                       # What write queue length does an incoming req see
system.mem_ctrls0.wrQLenPdf::27                  4739                       # What write queue length does an incoming req see
system.mem_ctrls0.wrQLenPdf::28                  4731                       # What write queue length does an incoming req see
system.mem_ctrls0.wrQLenPdf::29                  4719                       # What write queue length does an incoming req see
system.mem_ctrls0.wrQLenPdf::30                  4728                       # What write queue length does an incoming req see
system.mem_ctrls0.wrQLenPdf::31                  4712                       # What write queue length does an incoming req see
system.mem_ctrls0.wrQLenPdf::32                  4712                       # What write queue length does an incoming req see
system.mem_ctrls0.wrQLenPdf::33                   127                       # What write queue length does an incoming req see
system.mem_ctrls0.wrQLenPdf::34                    23                       # What write queue length does an incoming req see
system.mem_ctrls0.wrQLenPdf::35                     6                       # What write queue length does an incoming req see
system.mem_ctrls0.wrQLenPdf::36                     1                       # What write queue length does an incoming req see
system.mem_ctrls0.wrQLenPdf::37                     0                       # What write queue length does an incoming req see
system.mem_ctrls0.wrQLenPdf::38                     0                       # What write queue length does an incoming req see
system.mem_ctrls0.wrQLenPdf::39                     0                       # What write queue length does an incoming req see
system.mem_ctrls0.wrQLenPdf::40                     0                       # What write queue length does an incoming req see
system.mem_ctrls0.wrQLenPdf::41                     0                       # What write queue length does an incoming req see
system.mem_ctrls0.wrQLenPdf::42                     0                       # What write queue length does an incoming req see
system.mem_ctrls0.wrQLenPdf::43                     0                       # What write queue length does an incoming req see
system.mem_ctrls0.wrQLenPdf::44                     0                       # What write queue length does an incoming req see
system.mem_ctrls0.wrQLenPdf::45                     0                       # What write queue length does an incoming req see
system.mem_ctrls0.wrQLenPdf::46                     0                       # What write queue length does an incoming req see
system.mem_ctrls0.wrQLenPdf::47                     0                       # What write queue length does an incoming req see
system.mem_ctrls0.wrQLenPdf::48                     0                       # What write queue length does an incoming req see
system.mem_ctrls0.wrQLenPdf::49                     0                       # What write queue length does an incoming req see
system.mem_ctrls0.wrQLenPdf::50                     0                       # What write queue length does an incoming req see
system.mem_ctrls0.wrQLenPdf::51                     0                       # What write queue length does an incoming req see
system.mem_ctrls0.wrQLenPdf::52                     0                       # What write queue length does an incoming req see
system.mem_ctrls0.wrQLenPdf::53                     0                       # What write queue length does an incoming req see
system.mem_ctrls0.wrQLenPdf::54                     0                       # What write queue length does an incoming req see
system.mem_ctrls0.wrQLenPdf::55                     0                       # What write queue length does an incoming req see
system.mem_ctrls0.wrQLenPdf::56                     0                       # What write queue length does an incoming req see
system.mem_ctrls0.wrQLenPdf::57                     0                       # What write queue length does an incoming req see
system.mem_ctrls0.wrQLenPdf::58                     0                       # What write queue length does an incoming req see
system.mem_ctrls0.wrQLenPdf::59                     0                       # What write queue length does an incoming req see
system.mem_ctrls0.wrQLenPdf::60                     0                       # What write queue length does an incoming req see
system.mem_ctrls0.wrQLenPdf::61                     0                       # What write queue length does an incoming req see
system.mem_ctrls0.wrQLenPdf::62                     0                       # What write queue length does an incoming req see
system.mem_ctrls0.wrQLenPdf::63                     0                       # What write queue length does an incoming req see
system.mem_ctrls0.bytesPerActivate::samples       194556                       # Bytes accessed per row activation
system.mem_ctrls0.bytesPerActivate::mean    74.383437                       # Bytes accessed per row activation
system.mem_ctrls0.bytesPerActivate::gmean    69.255275                       # Bytes accessed per row activation
system.mem_ctrls0.bytesPerActivate::stdev    55.441502                       # Bytes accessed per row activation
system.mem_ctrls0.bytesPerActivate::0-127       177669     91.32%     91.32% # Bytes accessed per row activation
system.mem_ctrls0.bytesPerActivate::128-255        14555      7.48%     98.80% # Bytes accessed per row activation
system.mem_ctrls0.bytesPerActivate::256-383         1196      0.61%     99.42% # Bytes accessed per row activation
system.mem_ctrls0.bytesPerActivate::384-511          323      0.17%     99.58% # Bytes accessed per row activation
system.mem_ctrls0.bytesPerActivate::512-639          154      0.08%     99.66% # Bytes accessed per row activation
system.mem_ctrls0.bytesPerActivate::640-767          254      0.13%     99.79% # Bytes accessed per row activation
system.mem_ctrls0.bytesPerActivate::768-895          117      0.06%     99.85% # Bytes accessed per row activation
system.mem_ctrls0.bytesPerActivate::896-1023          101      0.05%     99.90% # Bytes accessed per row activation
system.mem_ctrls0.bytesPerActivate::1024-1151          187      0.10%    100.00% # Bytes accessed per row activation
system.mem_ctrls0.bytesPerActivate::total       194556                       # Bytes accessed per row activation
system.mem_ctrls0.rdPerTurnAround::samples         4713                       # Reads before turning the bus around for writes
system.mem_ctrls0.rdPerTurnAround::mean     30.155103                       # Reads before turning the bus around for writes
system.mem_ctrls0.rdPerTurnAround::stdev   378.219019                       # Reads before turning the bus around for writes
system.mem_ctrls0.rdPerTurnAround::0-1023         4712     99.98%     99.98% # Reads before turning the bus around for writes
system.mem_ctrls0.rdPerTurnAround::25600-26623            1      0.02%    100.00% # Reads before turning the bus around for writes
system.mem_ctrls0.rdPerTurnAround::total         4713                       # Reads before turning the bus around for writes
system.mem_ctrls0.wrPerTurnAround::samples         4713                       # Writes before turning the bus around for reads
system.mem_ctrls0.wrPerTurnAround::mean     17.823043                       # Writes before turning the bus around for reads
system.mem_ctrls0.wrPerTurnAround::gmean    17.805359                       # Writes before turning the bus around for reads
system.mem_ctrls0.wrPerTurnAround::stdev     0.785103                       # Writes before turning the bus around for reads
system.mem_ctrls0.wrPerTurnAround::16             590     12.52%     12.52% # Writes before turning the bus around for reads
system.mem_ctrls0.wrPerTurnAround::17              49      1.04%     13.56% # Writes before turning the bus around for reads
system.mem_ctrls0.wrPerTurnAround::18            3744     79.44%     93.00% # Writes before turning the bus around for reads
system.mem_ctrls0.wrPerTurnAround::19             286      6.07%     99.07% # Writes before turning the bus around for reads
system.mem_ctrls0.wrPerTurnAround::20              33      0.70%     99.77% # Writes before turning the bus around for reads
system.mem_ctrls0.wrPerTurnAround::21               8      0.17%     99.94% # Writes before turning the bus around for reads
system.mem_ctrls0.wrPerTurnAround::22               2      0.04%     99.98% # Writes before turning the bus around for reads
system.mem_ctrls0.wrPerTurnAround::29               1      0.02%    100.00% # Writes before turning the bus around for reads
system.mem_ctrls0.wrPerTurnAround::total         4713                       # Writes before turning the bus around for reads
system.mem_ctrls0.totQLat                 27478948687                       # Total ticks spent queuing
system.mem_ctrls0.totMemAccLat            30143717437                       # Total ticks spent from burst creation until serviced by the DRAM
system.mem_ctrls0.totBusLat                 710605000                       # Total ticks spent in databus transfers
system.mem_ctrls0.avgQLat                   193348.97                       # Average queueing delay per DRAM burst
system.mem_ctrls0.avgBusLat                   5000.00                       # Average bus latency per DRAM burst
system.mem_ctrls0.avgMemAccLat              212098.97                       # Average memory access latency per DRAM burst
system.mem_ctrls0.avgRdBW                        7.89                       # Average DRAM read bandwidth in MiByte/s
system.mem_ctrls0.avgWrBW                        4.66                       # Average achieved write bandwidth in MiByte/s
system.mem_ctrls0.avgRdBWSys                     7.89                       # Average system read bandwidth in MiByte/s
system.mem_ctrls0.avgWrBWSys                     4.67                       # Average system write bandwidth in MiByte/s
system.mem_ctrls0.peakBW                     12800.00                       # Theoretical peak bandwidth in MiByte/s
system.mem_ctrls0.busUtil                        0.10                       # Data bus utilization in percentage
system.mem_ctrls0.busUtilRead                    0.06                       # Data bus utilization in percentage for reads
system.mem_ctrls0.busUtilWrite                   0.04                       # Data bus utilization in percentage for writes
system.mem_ctrls0.avgRdQLen                      1.00                       # Average read queue length when enqueuing
system.mem_ctrls0.avgWrQLen                     20.82                       # Average write queue length when enqueuing
system.mem_ctrls0.readRowHits                   17365                       # Number of row buffer hits during reads
system.mem_ctrls0.writeRowHits                  14200                       # Number of row buffer hits during writes
system.mem_ctrls0.readRowHitRate                12.22                       # Row buffer hit rate for reads
system.mem_ctrls0.writeRowHitRate               16.90                       # Row buffer hit rate for writes
system.mem_ctrls0.avgGap                   5095240.19                       # Average gap between requests
system.mem_ctrls0.pageHitRate                   13.96                       # Row buffer hit rate, read and write combined
system.mem_ctrls0_0.actEnergy               696856860                       # Energy for activate commands per rank (pJ)
system.mem_ctrls0_0.preEnergy               370388205                       # Energy for precharge commands per rank (pJ)
system.mem_ctrls0_0.readEnergy              508589340                       # Energy for read commands per rank (pJ)
system.mem_ctrls0_0.writeEnergy             219443580                       # Energy for write commands per rank (pJ)
system.mem_ctrls0_0.refreshEnergy        57533991840.000015                       # Energy for refresh commands per rank (pJ)
system.mem_ctrls0_0.actBackEnergy         19673446830                       # Energy for active background per rank (pJ)
system.mem_ctrls0_0.preBackEnergy          3387565920                       # Energy for precharge background per rank (pJ)
system.mem_ctrls0_0.actPowerDownEnergy   113342591640                       # Energy for active power-down per rank (pJ)
system.mem_ctrls0_0.prePowerDownEnergy    95767683840                       # Energy for precharge power-down per rank (pJ)
system.mem_ctrls0_0.selfRefreshEnergy    158242889385                       # Energy for self refresh per rank (pJ)
system.mem_ctrls0_0.totalEnergy          449769310500                       # Total energy per rank (pJ)
system.mem_ctrls0_0.averagePower           390.272289                       # Core power per rank (mW)
system.mem_ctrls0_0.totalIdleTime        1100414388206                       # Total Idle time Per DRAM Rank
system.mem_ctrls0_0.memoryStateTime::IDLE   6805105529                       # Time in different power states
system.mem_ctrls0_0.memoryStateTime::REF  24488166000                       # Time in different power states
system.mem_ctrls0_0.memoryStateTime::SREF 602473709038                       # Time in different power states
system.mem_ctrls0_0.memoryStateTime::PRE_PDN 249395031611                       # Time in different power states
system.mem_ctrls0_0.memoryStateTime::ACT  20729764673                       # Time in different power states
system.mem_ctrls0_0.memoryStateTime::ACT_PDN 248558248187                       # Time in different power states
system.mem_ctrls0_1.actEnergy               692272980                       # Energy for activate commands per rank (pJ)
system.mem_ctrls0_1.preEnergy               367951815                       # Energy for precharge commands per rank (pJ)
system.mem_ctrls0_1.readEnergy              506154600                       # Energy for read commands per rank (pJ)
system.mem_ctrls0_1.writeEnergy             219036420                       # Energy for write commands per rank (pJ)
system.mem_ctrls0_1.refreshEnergy        57628031760.000015                       # Energy for refresh commands per rank (pJ)
system.mem_ctrls0_1.actBackEnergy         19734331950                       # Energy for active background per rank (pJ)
system.mem_ctrls0_1.preBackEnergy          3399799200                       # Energy for precharge background per rank (pJ)
system.mem_ctrls0_1.actPowerDownEnergy   113061874620                       # Energy for active power-down per rank (pJ)
system.mem_ctrls0_1.prePowerDownEnergy    95879473920                       # Energy for precharge power-down per rank (pJ)
system.mem_ctrls0_1.selfRefreshEnergy    158383473270                       # Energy for self refresh per rank (pJ)
system.mem_ctrls0_1.totalEnergy          449899158585                       # Total energy per rank (pJ)
system.mem_ctrls0_1.averagePower           390.384958                       # Core power per rank (mW)
system.mem_ctrls0_1.totalIdleTime        1100249657905                       # Total Idle time Per DRAM Rank
system.mem_ctrls0_1.memoryStateTime::IDLE   6837510757                       # Time in different power states
system.mem_ctrls0_1.memoryStateTime::REF  24529194000                       # Time in different power states
system.mem_ctrls0_1.memoryStateTime::SREF 602630959288                       # Time in different power states
system.mem_ctrls0_1.memoryStateTime::PRE_PDN 249685973673                       # Time in different power states
system.mem_ctrls0_1.memoryStateTime::ACT  20823488895                       # Time in different power states
system.mem_ctrls0_1.memoryStateTime::ACT_PDN 247942898425                       # Time in different power states
system.mem_ctrls1.pwrStateResidencyTicks::UNDEFINED 18805791415968                       # Cumulative time (in ticks) in various power states
system.mem_ctrls1.bytes_read::cpu.inst            128                       # Number of bytes read from this memory
system.mem_ctrls1.bytes_read::cpu.data            192                       # Number of bytes read from this memory
system.mem_ctrls1.bytes_read::switch_cpus.inst       160448                       # Number of bytes read from this memory
system.mem_ctrls1.bytes_read::switch_cpus.data      7671360                       # Number of bytes read from this memory
system.mem_ctrls1.bytes_read::switch_cpus_1.inst        23872                       # Number of bytes read from this memory
system.mem_ctrls1.bytes_read::switch_cpus_1.data      1276864                       # Number of bytes read from this memory
system.mem_ctrls1.bytes_read::total           9132864                       # Number of bytes read from this memory
system.mem_ctrls1.bytes_inst_read::cpu.inst          128                       # Number of instructions bytes read from this memory
system.mem_ctrls1.bytes_inst_read::switch_cpus.inst       160448                       # Number of instructions bytes read from this memory
system.mem_ctrls1.bytes_inst_read::switch_cpus_1.inst        23872                       # Number of instructions bytes read from this memory
system.mem_ctrls1.bytes_inst_read::total       184448                       # Number of instructions bytes read from this memory
system.mem_ctrls1.bytes_written::writebacks      5387840                       # Number of bytes written to this memory
system.mem_ctrls1.bytes_written::total        5387840                       # Number of bytes written to this memory
system.mem_ctrls1.num_reads::cpu.inst               2                       # Number of read requests responded to by this memory
system.mem_ctrls1.num_reads::cpu.data               3                       # Number of read requests responded to by this memory
system.mem_ctrls1.num_reads::switch_cpus.inst         2507                       # Number of read requests responded to by this memory
system.mem_ctrls1.num_reads::switch_cpus.data       119865                       # Number of read requests responded to by this memory
system.mem_ctrls1.num_reads::switch_cpus_1.inst          373                       # Number of read requests responded to by this memory
system.mem_ctrls1.num_reads::switch_cpus_1.data        19951                       # Number of read requests responded to by this memory
system.mem_ctrls1.num_reads::total             142701                       # Number of read requests responded to by this memory
system.mem_ctrls1.num_writes::writebacks        84185                       # Number of write requests responded to by this memory
system.mem_ctrls1.num_writes::total             84185                       # Number of write requests responded to by this memory
system.mem_ctrls1.bw_read::cpu.inst               111                       # Total read bandwidth from this memory (bytes/s)
system.mem_ctrls1.bw_read::cpu.data               167                       # Total read bandwidth from this memory (bytes/s)
system.mem_ctrls1.bw_read::switch_cpus.inst       139223                       # Total read bandwidth from this memory (bytes/s)
system.mem_ctrls1.bw_read::switch_cpus.data      6656566                       # Total read bandwidth from this memory (bytes/s)
system.mem_ctrls1.bw_read::switch_cpus_1.inst        20714                       # Total read bandwidth from this memory (bytes/s)
system.mem_ctrls1.bw_read::switch_cpus_1.data      1107956                       # Total read bandwidth from this memory (bytes/s)
system.mem_ctrls1.bw_read::total              7924738                       # Total read bandwidth from this memory (bytes/s)
system.mem_ctrls1.bw_inst_read::cpu.inst          111                       # Instruction read bandwidth from this memory (bytes/s)
system.mem_ctrls1.bw_inst_read::switch_cpus.inst       139223                       # Instruction read bandwidth from this memory (bytes/s)
system.mem_ctrls1.bw_inst_read::switch_cpus_1.inst        20714                       # Instruction read bandwidth from this memory (bytes/s)
system.mem_ctrls1.bw_inst_read::total          160049                       # Instruction read bandwidth from this memory (bytes/s)
system.mem_ctrls1.bw_write::writebacks        4675118                       # Write bandwidth from this memory (bytes/s)
system.mem_ctrls1.bw_write::total             4675118                       # Write bandwidth from this memory (bytes/s)
system.mem_ctrls1.bw_total::writebacks        4675118                       # Total bandwidth to/from this memory (bytes/s)
system.mem_ctrls1.bw_total::cpu.inst              111                       # Total bandwidth to/from this memory (bytes/s)
system.mem_ctrls1.bw_total::cpu.data              167                       # Total bandwidth to/from this memory (bytes/s)
system.mem_ctrls1.bw_total::switch_cpus.inst       139223                       # Total bandwidth to/from this memory (bytes/s)
system.mem_ctrls1.bw_total::switch_cpus.data      6656566                       # Total bandwidth to/from this memory (bytes/s)
system.mem_ctrls1.bw_total::switch_cpus_1.inst        20714                       # Total bandwidth to/from this memory (bytes/s)
system.mem_ctrls1.bw_total::switch_cpus_1.data      1107956                       # Total bandwidth to/from this memory (bytes/s)
system.mem_ctrls1.bw_total::total            12599856                       # Total bandwidth to/from this memory (bytes/s)
system.mem_ctrls1.readReqs                     142701                       # Number of read requests accepted
system.mem_ctrls1.writeReqs                     84185                       # Number of write requests accepted
system.mem_ctrls1.readBursts                   142701                       # Number of DRAM read bursts, including those serviced by the write queue
system.mem_ctrls1.writeBursts                   84185                       # Number of DRAM write bursts, including those merged in the write queue
system.mem_ctrls1.bytesReadDRAM               9131456                       # Total number of bytes read from DRAM
system.mem_ctrls1.bytesReadWrQ                   1408                       # Total number of bytes read from write queue
system.mem_ctrls1.bytesWritten                5386688                       # Total number of bytes written to DRAM
system.mem_ctrls1.bytesReadSys                9132864                       # Total read bytes from the system interface side
system.mem_ctrls1.bytesWrittenSys             5387840                       # Total written bytes from the system interface side
system.mem_ctrls1.servicedByWrQ                    22                       # Number of DRAM read bursts serviced by the write queue
system.mem_ctrls1.mergedWrBursts                    0                       # Number of DRAM write bursts merged with an existing one
system.mem_ctrls1.neitherReadNorWriteReqs            0                       # Number of requests that are neither read nor write
system.mem_ctrls1.perBankRdBursts::0             8744                       # Per bank write bursts
system.mem_ctrls1.perBankRdBursts::1             8910                       # Per bank write bursts
system.mem_ctrls1.perBankRdBursts::2             9110                       # Per bank write bursts
system.mem_ctrls1.perBankRdBursts::3             9289                       # Per bank write bursts
system.mem_ctrls1.perBankRdBursts::4             9199                       # Per bank write bursts
system.mem_ctrls1.perBankRdBursts::5             9017                       # Per bank write bursts
system.mem_ctrls1.perBankRdBursts::6             8547                       # Per bank write bursts
system.mem_ctrls1.perBankRdBursts::7             8766                       # Per bank write bursts
system.mem_ctrls1.perBankRdBursts::8             9177                       # Per bank write bursts
system.mem_ctrls1.perBankRdBursts::9             9324                       # Per bank write bursts
system.mem_ctrls1.perBankRdBursts::10            8867                       # Per bank write bursts
system.mem_ctrls1.perBankRdBursts::11            9216                       # Per bank write bursts
system.mem_ctrls1.perBankRdBursts::12            8875                       # Per bank write bursts
system.mem_ctrls1.perBankRdBursts::13            8650                       # Per bank write bursts
system.mem_ctrls1.perBankRdBursts::14            8469                       # Per bank write bursts
system.mem_ctrls1.perBankRdBursts::15            8519                       # Per bank write bursts
system.mem_ctrls1.perBankWrBursts::0             5344                       # Per bank write bursts
system.mem_ctrls1.perBankWrBursts::1             5468                       # Per bank write bursts
system.mem_ctrls1.perBankWrBursts::2             5340                       # Per bank write bursts
system.mem_ctrls1.perBankWrBursts::3             5371                       # Per bank write bursts
system.mem_ctrls1.perBankWrBursts::4             5260                       # Per bank write bursts
system.mem_ctrls1.perBankWrBursts::5             5272                       # Per bank write bursts
system.mem_ctrls1.perBankWrBursts::6             5024                       # Per bank write bursts
system.mem_ctrls1.perBankWrBursts::7             5048                       # Per bank write bursts
system.mem_ctrls1.perBankWrBursts::8             5102                       # Per bank write bursts
system.mem_ctrls1.perBankWrBursts::9             5245                       # Per bank write bursts
system.mem_ctrls1.perBankWrBursts::10            5364                       # Per bank write bursts
system.mem_ctrls1.perBankWrBursts::11            5733                       # Per bank write bursts
system.mem_ctrls1.perBankWrBursts::12            5359                       # Per bank write bursts
system.mem_ctrls1.perBankWrBursts::13            5087                       # Per bank write bursts
system.mem_ctrls1.perBankWrBursts::14            4969                       # Per bank write bursts
system.mem_ctrls1.perBankWrBursts::15            5181                       # Per bank write bursts
system.mem_ctrls1.numRdRetry                        0                       # Number of times read queue was full causing retry
system.mem_ctrls1.numWrRetry                        0                       # Number of times write queue was full causing retry
system.mem_ctrls1.totGap                 1152449808255                       # Total gap between requests
system.mem_ctrls1.readPktSize::0                    0                       # Read request sizes (log2)
system.mem_ctrls1.readPktSize::1                    0                       # Read request sizes (log2)
system.mem_ctrls1.readPktSize::2                    0                       # Read request sizes (log2)
system.mem_ctrls1.readPktSize::3                    0                       # Read request sizes (log2)
system.mem_ctrls1.readPktSize::4                    0                       # Read request sizes (log2)
system.mem_ctrls1.readPktSize::5                    0                       # Read request sizes (log2)
system.mem_ctrls1.readPktSize::6               142701                       # Read request sizes (log2)
system.mem_ctrls1.writePktSize::0                   0                       # Write request sizes (log2)
system.mem_ctrls1.writePktSize::1                   0                       # Write request sizes (log2)
system.mem_ctrls1.writePktSize::2                   0                       # Write request sizes (log2)
system.mem_ctrls1.writePktSize::3                   0                       # Write request sizes (log2)
system.mem_ctrls1.writePktSize::4                   0                       # Write request sizes (log2)
system.mem_ctrls1.writePktSize::5                   0                       # Write request sizes (log2)
system.mem_ctrls1.writePktSize::6               84185                       # Write request sizes (log2)
system.mem_ctrls1.rdQLenPdf::0                 140985                       # What read queue length does an incoming req see
system.mem_ctrls1.rdQLenPdf::1                   1659                       # What read queue length does an incoming req see
system.mem_ctrls1.rdQLenPdf::2                     34                       # What read queue length does an incoming req see
system.mem_ctrls1.rdQLenPdf::3                      1                       # What read queue length does an incoming req see
system.mem_ctrls1.rdQLenPdf::4                      0                       # What read queue length does an incoming req see
system.mem_ctrls1.rdQLenPdf::5                      0                       # What read queue length does an incoming req see
system.mem_ctrls1.rdQLenPdf::6                      0                       # What read queue length does an incoming req see
system.mem_ctrls1.rdQLenPdf::7                      0                       # What read queue length does an incoming req see
system.mem_ctrls1.rdQLenPdf::8                      0                       # What read queue length does an incoming req see
system.mem_ctrls1.rdQLenPdf::9                      0                       # What read queue length does an incoming req see
system.mem_ctrls1.rdQLenPdf::10                     0                       # What read queue length does an incoming req see
system.mem_ctrls1.rdQLenPdf::11                     0                       # What read queue length does an incoming req see
system.mem_ctrls1.rdQLenPdf::12                     0                       # What read queue length does an incoming req see
system.mem_ctrls1.rdQLenPdf::13                     0                       # What read queue length does an incoming req see
system.mem_ctrls1.rdQLenPdf::14                     0                       # What read queue length does an incoming req see
system.mem_ctrls1.rdQLenPdf::15                     0                       # What read queue length does an incoming req see
system.mem_ctrls1.rdQLenPdf::16                     0                       # What read queue length does an incoming req see
system.mem_ctrls1.rdQLenPdf::17                     0                       # What read queue length does an incoming req see
system.mem_ctrls1.rdQLenPdf::18                     0                       # What read queue length does an incoming req see
system.mem_ctrls1.rdQLenPdf::19                     0                       # What read queue length does an incoming req see
system.mem_ctrls1.rdQLenPdf::20                     0                       # What read queue length does an incoming req see
system.mem_ctrls1.rdQLenPdf::21                     0                       # What read queue length does an incoming req see
system.mem_ctrls1.rdQLenPdf::22                     0                       # What read queue length does an incoming req see
system.mem_ctrls1.rdQLenPdf::23                     0                       # What read queue length does an incoming req see
system.mem_ctrls1.rdQLenPdf::24                     0                       # What read queue length does an incoming req see
system.mem_ctrls1.rdQLenPdf::25                     0                       # What read queue length does an incoming req see
system.mem_ctrls1.rdQLenPdf::26                     0                       # What read queue length does an incoming req see
system.mem_ctrls1.rdQLenPdf::27                     0                       # What read queue length does an incoming req see
system.mem_ctrls1.rdQLenPdf::28                     0                       # What read queue length does an incoming req see
system.mem_ctrls1.rdQLenPdf::29                     0                       # What read queue length does an incoming req see
system.mem_ctrls1.rdQLenPdf::30                     0                       # What read queue length does an incoming req see
system.mem_ctrls1.rdQLenPdf::31                     0                       # What read queue length does an incoming req see
system.mem_ctrls1.wrQLenPdf::0                      2                       # What write queue length does an incoming req see
system.mem_ctrls1.wrQLenPdf::1                      2                       # What write queue length does an incoming req see
system.mem_ctrls1.wrQLenPdf::2                      2                       # What write queue length does an incoming req see
system.mem_ctrls1.wrQLenPdf::3                      2                       # What write queue length does an incoming req see
system.mem_ctrls1.wrQLenPdf::4                      2                       # What write queue length does an incoming req see
system.mem_ctrls1.wrQLenPdf::5                      2                       # What write queue length does an incoming req see
system.mem_ctrls1.wrQLenPdf::6                      2                       # What write queue length does an incoming req see
system.mem_ctrls1.wrQLenPdf::7                      2                       # What write queue length does an incoming req see
system.mem_ctrls1.wrQLenPdf::8                      2                       # What write queue length does an incoming req see
system.mem_ctrls1.wrQLenPdf::9                      2                       # What write queue length does an incoming req see
system.mem_ctrls1.wrQLenPdf::10                     2                       # What write queue length does an incoming req see
system.mem_ctrls1.wrQLenPdf::11                     2                       # What write queue length does an incoming req see
system.mem_ctrls1.wrQLenPdf::12                     2                       # What write queue length does an incoming req see
system.mem_ctrls1.wrQLenPdf::13                     2                       # What write queue length does an incoming req see
system.mem_ctrls1.wrQLenPdf::14                     2                       # What write queue length does an incoming req see
system.mem_ctrls1.wrQLenPdf::15                  4086                       # What write queue length does an incoming req see
system.mem_ctrls1.wrQLenPdf::16                  4150                       # What write queue length does an incoming req see
system.mem_ctrls1.wrQLenPdf::17                  4699                       # What write queue length does an incoming req see
system.mem_ctrls1.wrQLenPdf::18                  4735                       # What write queue length does an incoming req see
system.mem_ctrls1.wrQLenPdf::19                  4738                       # What write queue length does an incoming req see
system.mem_ctrls1.wrQLenPdf::20                  4753                       # What write queue length does an incoming req see
system.mem_ctrls1.wrQLenPdf::21                  4738                       # What write queue length does an incoming req see
system.mem_ctrls1.wrQLenPdf::22                  4775                       # What write queue length does an incoming req see
system.mem_ctrls1.wrQLenPdf::23                  4758                       # What write queue length does an incoming req see
system.mem_ctrls1.wrQLenPdf::24                  4753                       # What write queue length does an incoming req see
system.mem_ctrls1.wrQLenPdf::25                  4740                       # What write queue length does an incoming req see
system.mem_ctrls1.wrQLenPdf::26                  4743                       # What write queue length does an incoming req see
system.mem_ctrls1.wrQLenPdf::27                  4741                       # What write queue length does an incoming req see
system.mem_ctrls1.wrQLenPdf::28                  4735                       # What write queue length does an incoming req see
system.mem_ctrls1.wrQLenPdf::29                  4729                       # What write queue length does an incoming req see
system.mem_ctrls1.wrQLenPdf::30                  4735                       # What write queue length does an incoming req see
system.mem_ctrls1.wrQLenPdf::31                  4725                       # What write queue length does an incoming req see
system.mem_ctrls1.wrQLenPdf::32                  4723                       # What write queue length does an incoming req see
system.mem_ctrls1.wrQLenPdf::33                    87                       # What write queue length does an incoming req see
system.mem_ctrls1.wrQLenPdf::34                    10                       # What write queue length does an incoming req see
system.mem_ctrls1.wrQLenPdf::35                     2                       # What write queue length does an incoming req see
system.mem_ctrls1.wrQLenPdf::36                     0                       # What write queue length does an incoming req see
system.mem_ctrls1.wrQLenPdf::37                     0                       # What write queue length does an incoming req see
system.mem_ctrls1.wrQLenPdf::38                     0                       # What write queue length does an incoming req see
system.mem_ctrls1.wrQLenPdf::39                     0                       # What write queue length does an incoming req see
system.mem_ctrls1.wrQLenPdf::40                     0                       # What write queue length does an incoming req see
system.mem_ctrls1.wrQLenPdf::41                     0                       # What write queue length does an incoming req see
system.mem_ctrls1.wrQLenPdf::42                     0                       # What write queue length does an incoming req see
system.mem_ctrls1.wrQLenPdf::43                     0                       # What write queue length does an incoming req see
system.mem_ctrls1.wrQLenPdf::44                     0                       # What write queue length does an incoming req see
system.mem_ctrls1.wrQLenPdf::45                     0                       # What write queue length does an incoming req see
system.mem_ctrls1.wrQLenPdf::46                     0                       # What write queue length does an incoming req see
system.mem_ctrls1.wrQLenPdf::47                     0                       # What write queue length does an incoming req see
system.mem_ctrls1.wrQLenPdf::48                     0                       # What write queue length does an incoming req see
system.mem_ctrls1.wrQLenPdf::49                     0                       # What write queue length does an incoming req see
system.mem_ctrls1.wrQLenPdf::50                     0                       # What write queue length does an incoming req see
system.mem_ctrls1.wrQLenPdf::51                     0                       # What write queue length does an incoming req see
system.mem_ctrls1.wrQLenPdf::52                     0                       # What write queue length does an incoming req see
system.mem_ctrls1.wrQLenPdf::53                     0                       # What write queue length does an incoming req see
system.mem_ctrls1.wrQLenPdf::54                     0                       # What write queue length does an incoming req see
system.mem_ctrls1.wrQLenPdf::55                     0                       # What write queue length does an incoming req see
system.mem_ctrls1.wrQLenPdf::56                     0                       # What write queue length does an incoming req see
system.mem_ctrls1.wrQLenPdf::57                     0                       # What write queue length does an incoming req see
system.mem_ctrls1.wrQLenPdf::58                     0                       # What write queue length does an incoming req see
system.mem_ctrls1.wrQLenPdf::59                     0                       # What write queue length does an incoming req see
system.mem_ctrls1.wrQLenPdf::60                     0                       # What write queue length does an incoming req see
system.mem_ctrls1.wrQLenPdf::61                     0                       # What write queue length does an incoming req see
system.mem_ctrls1.wrQLenPdf::62                     0                       # What write queue length does an incoming req see
system.mem_ctrls1.wrQLenPdf::63                     0                       # What write queue length does an incoming req see
system.mem_ctrls1.bytesPerActivate::samples       195453                       # Bytes accessed per row activation
system.mem_ctrls1.bytesPerActivate::mean    74.277826                       # Bytes accessed per row activation
system.mem_ctrls1.bytesPerActivate::gmean    69.215356                       # Bytes accessed per row activation
system.mem_ctrls1.bytesPerActivate::stdev    54.917847                       # Bytes accessed per row activation
system.mem_ctrls1.bytesPerActivate::0-127       178560     91.36%     91.36% # Bytes accessed per row activation
system.mem_ctrls1.bytesPerActivate::128-255        14573      7.46%     98.81% # Bytes accessed per row activation
system.mem_ctrls1.bytesPerActivate::256-383         1177      0.60%     99.42% # Bytes accessed per row activation
system.mem_ctrls1.bytesPerActivate::384-511          321      0.16%     99.58% # Bytes accessed per row activation
system.mem_ctrls1.bytesPerActivate::512-639          181      0.09%     99.67% # Bytes accessed per row activation
system.mem_ctrls1.bytesPerActivate::640-767          232      0.12%     99.79% # Bytes accessed per row activation
system.mem_ctrls1.bytesPerActivate::768-895          142      0.07%     99.86% # Bytes accessed per row activation
system.mem_ctrls1.bytesPerActivate::896-1023           80      0.04%     99.90% # Bytes accessed per row activation
system.mem_ctrls1.bytesPerActivate::1024-1151          187      0.10%    100.00% # Bytes accessed per row activation
system.mem_ctrls1.bytesPerActivate::total       195453                       # Bytes accessed per row activation
system.mem_ctrls1.rdPerTurnAround::samples         4724                       # Reads before turning the bus around for writes
system.mem_ctrls1.rdPerTurnAround::mean     30.203006                       # Reads before turning the bus around for writes
system.mem_ctrls1.rdPerTurnAround::stdev   381.546150                       # Reads before turning the bus around for writes
system.mem_ctrls1.rdPerTurnAround::0-1023         4723     99.98%     99.98% # Reads before turning the bus around for writes
system.mem_ctrls1.rdPerTurnAround::25600-26623            1      0.02%    100.00% # Reads before turning the bus around for writes
system.mem_ctrls1.rdPerTurnAround::total         4724                       # Reads before turning the bus around for writes
system.mem_ctrls1.wrPerTurnAround::samples         4724                       # Writes before turning the bus around for reads
system.mem_ctrls1.wrPerTurnAround::mean     17.816892                       # Writes before turning the bus around for reads
system.mem_ctrls1.wrPerTurnAround::gmean    17.799286                       # Writes before turning the bus around for reads
system.mem_ctrls1.wrPerTurnAround::stdev     0.785294                       # Writes before turning the bus around for reads
system.mem_ctrls1.wrPerTurnAround::16             590     12.49%     12.49% # Writes before turning the bus around for reads
system.mem_ctrls1.wrPerTurnAround::17              44      0.93%     13.42% # Writes before turning the bus around for reads
system.mem_ctrls1.wrPerTurnAround::18            3801     80.46%     93.88% # Writes before turning the bus around for reads
system.mem_ctrls1.wrPerTurnAround::19             249      5.27%     99.15% # Writes before turning the bus around for reads
system.mem_ctrls1.wrPerTurnAround::20              28      0.59%     99.75% # Writes before turning the bus around for reads
system.mem_ctrls1.wrPerTurnAround::21               6      0.13%     99.87% # Writes before turning the bus around for reads
system.mem_ctrls1.wrPerTurnAround::22               2      0.04%     99.92% # Writes before turning the bus around for reads
system.mem_ctrls1.wrPerTurnAround::23               2      0.04%     99.96% # Writes before turning the bus around for reads
system.mem_ctrls1.wrPerTurnAround::25               1      0.02%     99.98% # Writes before turning the bus around for reads
system.mem_ctrls1.wrPerTurnAround::29               1      0.02%    100.00% # Writes before turning the bus around for reads
system.mem_ctrls1.wrPerTurnAround::total         4724                       # Writes before turning the bus around for reads
system.mem_ctrls1.totQLat                 27558359486                       # Total ticks spent queuing
system.mem_ctrls1.totMemAccLat            30233590736                       # Total ticks spent from burst creation until serviced by the DRAM
system.mem_ctrls1.totBusLat                 713395000                       # Total ticks spent in databus transfers
system.mem_ctrls1.avgQLat                   193149.37                       # Average queueing delay per DRAM burst
system.mem_ctrls1.avgBusLat                   5000.00                       # Average bus latency per DRAM burst
system.mem_ctrls1.avgMemAccLat              211899.37                       # Average memory access latency per DRAM burst
system.mem_ctrls1.avgRdBW                        7.92                       # Average DRAM read bandwidth in MiByte/s
system.mem_ctrls1.avgWrBW                        4.67                       # Average achieved write bandwidth in MiByte/s
system.mem_ctrls1.avgRdBWSys                     7.92                       # Average system read bandwidth in MiByte/s
system.mem_ctrls1.avgWrBWSys                     4.68                       # Average system write bandwidth in MiByte/s
system.mem_ctrls1.peakBW                     12800.00                       # Theoretical peak bandwidth in MiByte/s
system.mem_ctrls1.busUtil                        0.10                       # Data bus utilization in percentage
system.mem_ctrls1.busUtilRead                    0.06                       # Data bus utilization in percentage for reads
system.mem_ctrls1.busUtilWrite                   0.04                       # Data bus utilization in percentage for writes
system.mem_ctrls1.avgRdQLen                      1.00                       # Average read queue length when enqueuing
system.mem_ctrls1.avgWrQLen                     20.77                       # Average write queue length when enqueuing
system.mem_ctrls1.readRowHits                   17342                       # Number of row buffer hits during reads
system.mem_ctrls1.writeRowHits                  14046                       # Number of row buffer hits during writes
system.mem_ctrls1.readRowHitRate                12.15                       # Row buffer hit rate for reads
system.mem_ctrls1.writeRowHitRate               16.68                       # Row buffer hit rate for writes
system.mem_ctrls1.avgGap                   5079422.30                       # Average gap between requests
system.mem_ctrls1.pageHitRate                   13.84                       # Row buffer hit rate, read and write combined
system.mem_ctrls1_0.actEnergy               700155540                       # Energy for activate commands per rank (pJ)
system.mem_ctrls1_0.preEnergy               372130110                       # Energy for precharge commands per rank (pJ)
system.mem_ctrls1_0.readEnergy              511095480                       # Energy for read commands per rank (pJ)
system.mem_ctrls1_0.writeEnergy             219902940                       # Energy for write commands per rank (pJ)
system.mem_ctrls1_0.refreshEnergy        57761408640.000015                       # Energy for refresh commands per rank (pJ)
system.mem_ctrls1_0.actBackEnergy         19691520390                       # Energy for active background per rank (pJ)
system.mem_ctrls1_0.preBackEnergy          3397165440                       # Energy for precharge background per rank (pJ)
system.mem_ctrls1_0.actPowerDownEnergy   113933075730                       # Energy for active power-down per rank (pJ)
system.mem_ctrls1_0.prePowerDownEnergy    95989012800                       # Energy for precharge power-down per rank (pJ)
system.mem_ctrls1_0.selfRefreshEnergy    157850465700                       # Energy for self refresh per rank (pJ)
system.mem_ctrls1_0.totalEnergy          450452573310                       # Total energy per rank (pJ)
system.mem_ctrls1_0.averagePower           390.865164                       # Core power per rank (mW)
system.mem_ctrls1_0.totalIdleTime        1100360776824                       # Total Idle time Per DRAM Rank
system.mem_ctrls1_0.memoryStateTime::IDLE   6823514663                       # Time in different power states
system.mem_ctrls1_0.memoryStateTime::REF  24585404000                       # Time in different power states
system.mem_ctrls1_0.memoryStateTime::SREF 600536126284                       # Time in different power states
system.mem_ctrls1_0.memoryStateTime::PRE_PDN 249971210232                       # Time in different power states
system.mem_ctrls1_0.memoryStateTime::ACT  20680329551                       # Time in different power states
system.mem_ctrls1_0.memoryStateTime::ACT_PDN 249853440308                       # Time in different power states
system.mem_ctrls1_1.actEnergy               695414580                       # Energy for activate commands per rank (pJ)
system.mem_ctrls1_1.preEnergy               369614025                       # Energy for precharge commands per rank (pJ)
system.mem_ctrls1_1.readEnergy              507632580                       # Energy for read commands per rank (pJ)
system.mem_ctrls1_1.writeEnergy             219448800                       # Energy for write commands per rank (pJ)
system.mem_ctrls1_1.refreshEnergy        57545055360.000015                       # Energy for refresh commands per rank (pJ)
system.mem_ctrls1_1.actBackEnergy         19563327390                       # Energy for active background per rank (pJ)
system.mem_ctrls1_1.preBackEnergy          3390950400                       # Energy for precharge background per rank (pJ)
system.mem_ctrls1_1.actPowerDownEnergy   113267331690                       # Energy for active power-down per rank (pJ)
system.mem_ctrls1_1.prePowerDownEnergy    95841376800                       # Energy for precharge power-down per rank (pJ)
system.mem_ctrls1_1.selfRefreshEnergy    158319145065                       # Energy for self refresh per rank (pJ)
system.mem_ctrls1_1.totalEnergy          449747262840                       # Total energy per rank (pJ)
system.mem_ctrls1_1.averagePower           390.253154                       # Core power per rank (mW)
system.mem_ctrls1_1.totalIdleTime        1100655480520                       # Total Idle time Per DRAM Rank
system.mem_ctrls1_1.memoryStateTime::IDLE   6816165096                       # Time in different power states
system.mem_ctrls1_1.memoryStateTime::REF  24493284000                       # Time in different power states
system.mem_ctrls1_1.memoryStateTime::SREF 602675115534                       # Time in different power states
system.mem_ctrls1_1.memoryStateTime::PRE_PDN 249587122800                       # Time in different power states
system.mem_ctrls1_1.memoryStateTime::ACT  20485095422                       # Time in different power states
system.mem_ctrls1_1.memoryStateTime::ACT_PDN 248393242186                       # Time in different power states
system.pwrStateResidencyTicks::UNDEFINED 18805791415968                       # Cumulative time (in ticks) in various power states
system.cpu.branchPred.lookups                       3                       # Number of BP lookups
system.cpu.branchPred.condPredicted                 1                       # Number of conditional branches predicted
system.cpu.branchPred.condIncorrect                 1                       # Number of conditional branches incorrect
system.cpu.branchPred.BTBLookups                    2                       # Number of BTB lookups
system.cpu.branchPred.BTBHits                       0                       # Number of BTB hits
system.cpu.branchPred.BTBCorrect                    0                       # Number of correct BTB predictions (this stat may not work properly.
system.cpu.branchPred.BTBHitPct              0.000000                       # BTB Hit Percentage
system.cpu.branchPred.usedRAS                       0                       # Number of times the RAS was used to get a target.
system.cpu.branchPred.RASInCorrect                  0                       # Number of incorrect RAS predictions.
system.cpu.branchPred.indirectLookups               0                       # Number of indirect predictor lookups.
system.cpu.branchPred.indirectHits                  0                       # Number of indirect target hits.
system.cpu.branchPred.indirectMisses                0                       # Number of indirect misses.
system.cpu.branchPredindirectMispredicted            0                       # Number of mispredicted indirect branches.
system.cpu_voltage_domain.voltage                   1                       # Voltage in Volts
system.cpu_clk_domain.clock                       333                       # Clock period in ticks
system.cpu.dtb.fetch_hits                           0                       # ITB hits
system.cpu.dtb.fetch_misses                         0                       # ITB misses
system.cpu.dtb.fetch_acv                            0                       # ITB acv
system.cpu.dtb.fetch_accesses                       0                       # ITB accesses
system.cpu.dtb.read_hits                            3                       # DTB read hits
system.cpu.dtb.read_misses                          0                       # DTB read misses
system.cpu.dtb.read_acv                             0                       # DTB read access violations
system.cpu.dtb.read_accesses                        3                       # DTB read accesses
system.cpu.dtb.write_hits                          11                       # DTB write hits
system.cpu.dtb.write_misses                         0                       # DTB write misses
system.cpu.dtb.write_acv                            0                       # DTB write access violations
system.cpu.dtb.write_accesses                      11                       # DTB write accesses
system.cpu.dtb.data_hits                           14                       # DTB hits
system.cpu.dtb.data_misses                          0                       # DTB misses
system.cpu.dtb.data_acv                             0                       # DTB access violations
system.cpu.dtb.data_accesses                       14                       # DTB accesses
system.cpu.itb.fetch_hits                           6                       # ITB hits
system.cpu.itb.fetch_misses                         0                       # ITB misses
system.cpu.itb.fetch_acv                            0                       # ITB acv
system.cpu.itb.fetch_accesses                       6                       # ITB accesses
system.cpu.itb.read_hits                            0                       # DTB read hits
system.cpu.itb.read_misses                          0                       # DTB read misses
system.cpu.itb.read_acv                             0                       # DTB read access violations
system.cpu.itb.read_accesses                        0                       # DTB read accesses
system.cpu.itb.write_hits                           0                       # DTB write hits
system.cpu.itb.write_misses                         0                       # DTB write misses
system.cpu.itb.write_acv                            0                       # DTB write access violations
system.cpu.itb.write_accesses                       0                       # DTB write accesses
system.cpu.itb.data_hits                            0                       # DTB hits
system.cpu.itb.data_misses                          0                       # DTB misses
system.cpu.itb.data_acv                             0                       # DTB access violations
system.cpu.itb.data_accesses                        0                       # DTB accesses
system.cpu.workload.num_syscalls                    0                       # Number of system calls
system.cpu.pwrStateResidencyTicks::ON    1152450025038                       # Cumulative time (in ticks) in various power states
system.cpu.numCycles                             1491                       # number of cpu cycles simulated
system.cpu.numWorkItemsStarted                      0                       # number of work items this cpu started
system.cpu.numWorkItemsCompleted                    0                       # number of work items this cpu completed
system.cpu.fetch.icacheStallCycles                 63                       # Number of cycles fetch is stalled on an Icache miss
system.cpu.fetch.Insts                             31                       # Number of instructions fetch has processed
system.cpu.fetch.Branches                           3                       # Number of branches that fetch encountered
system.cpu.fetch.Cycles                             5                       # Number of cycles fetch has run and was not squashing or blocked
system.cpu.fetch.SquashCycles                       5                       # Number of cycles fetch has spent squashing
system.cpu.fetch.PendingDrainCycles                 8                       # Number of cycles fetch has spent waiting on pipes to drain
system.cpu.fetch.CacheLines                         6                       # Number of cache lines fetched
system.cpu.fetch.IcacheSquashes                     3                       # Number of outstanding Icache misses that were squashed
system.cpu.fetch.rateDist::samples                 78                       # Number of instructions fetched each cycle (Total)
system.cpu.fetch.rateDist::mean              0.397436                       # Number of instructions fetched each cycle (Total)
system.cpu.fetch.rateDist::stdev             1.646245                       # Number of instructions fetched each cycle (Total)
system.cpu.fetch.rateDist::underflows               0      0.00%      0.00% # Number of instructions fetched each cycle (Total)
system.cpu.fetch.rateDist::0                       73     93.59%     93.59% # Number of instructions fetched each cycle (Total)
system.cpu.fetch.rateDist::1                        0      0.00%     93.59% # Number of instructions fetched each cycle (Total)
system.cpu.fetch.rateDist::2                        1      1.28%     94.87% # Number of instructions fetched each cycle (Total)
system.cpu.fetch.rateDist::3                        0      0.00%     94.87% # Number of instructions fetched each cycle (Total)
system.cpu.fetch.rateDist::4                        0      0.00%     94.87% # Number of instructions fetched each cycle (Total)
system.cpu.fetch.rateDist::5                        1      1.28%     96.15% # Number of instructions fetched each cycle (Total)
system.cpu.fetch.rateDist::6                        0      0.00%     96.15% # Number of instructions fetched each cycle (Total)
system.cpu.fetch.rateDist::7                        0      0.00%     96.15% # Number of instructions fetched each cycle (Total)
[...]
system.switch_cpus_1.iq.int_inst_queue_writes    350681621                       # Number of integer instruction queue writes
system.switch_cpus_1.iq.int_inst_queue_wakeup_accesses    241011080                       # Number of integer instruction queue wakeup accesses
system.switch_cpus_1.iq.fp_inst_queue_reads      4184027                       # Number of floating instruction queue reads
system.switch_cpus_1.iq.fp_inst_queue_writes      2881838                       # Number of floating instruction queue writes
system.switch_cpus_1.iq.fp_inst_queue_wakeup_accesses      1992102                       # Number of floating instruction queue wakeup accesses
system.switch_cpus_1.iq.int_alu_accesses    258590514                       # Number of integer alu accesses
system.switch_cpus_1.iq.fp_alu_accesses       2118301                       # Number of floating point alu accesses
system.switch_cpus_1.iew.lsq.thread0.forwLoads      2616347                       # Number of loads that had data forwarded from stores
system.switch_cpus_1.iew.lsq.thread0.invAddrLoads            0                       # Number of loads ignored due to an invalid address
system.switch_cpus_1.iew.lsq.thread0.squashedLoads     17982067                       # Number of loads squashed
system.switch_cpus_1.iew.lsq.thread0.ignoredResponses        30888                       # Number of memory responses ignored because the instruction is squashed
system.switch_cpus_1.iew.lsq.thread0.memOrderViolation        36553                       # Number of memory ordering violations
system.switch_cpus_1.iew.lsq.thread0.squashedStores      5646515                       # Number of stores squashed
system.switch_cpus_1.iew.lsq.thread0.invAddrSwpfs            0                       # Number of software prefetches ignored due to an invalid address
system.switch_cpus_1.iew.lsq.thread0.blockedLoads            0                       # Number of blocked loads due to partial load-store forwarding
system.switch_cpus_1.iew.lsq.thread0.rescheduledLoads         9664                       # Number of loads that were rescheduled
system.switch_cpus_1.iew.lsq.thread0.cacheBlocked      1584831                       # Number of times an access to memory failed due to the cache being blocked
system.switch_cpus_1.iew.iewIdleCycles              0                       # Number of cycles IEW is idle
system.switch_cpus_1.iew.iewSquashCycles      3789741                       # Number of cycles IEW is squashing
system.switch_cpus_1.iew.iewBlockCycles      13080227                       # Number of cycles IEW is blocking
system.switch_cpus_1.iew.iewUnblockCycles      3355443                       # Number of cycles IEW is unblocking
system.switch_cpus_1.iew.iewDispatchedInsts    283615340                       # Number of instructions dispatched to IQ
system.switch_cpus_1.iew.iewDispSquashedInsts      1399055                       # Number of squashed instructions skipped by dispatch
system.switch_cpus_1.iew.iewDispLoadInsts     62103821                       # Number of dispatched load instructions
system.switch_cpus_1.iew.iewDispStoreInsts     27946360                       # Number of dispatched store instructions
system.switch_cpus_1.iew.iewDispNonSpecInsts          177                       # Number of dispatched non-speculative instructions
system.switch_cpus_1.iew.iewIQFullEvents        27008                       # Number of times the IQ has become full, causing a stall
system.switch_cpus_1.iew.iewLSQFullEvents      3280833                       # Number of times the LSQ has become full, causing a stall
system.switch_cpus_1.iew.memOrderViolationEvents        36553                       # Number of memory order violations
system.switch_cpus_1.iew.predictedTakenIncorrect      2206954                       # Number of branches that were predicted taken incorrectly
system.switch_cpus_1.iew.predictedNotTakenIncorrect      1998359                       # Number of branches that were predicted not taken incorrectly
system.switch_cpus_1.iew.branchMispredicts      4205313                       # Number of branch mispredicts detected at execute
system.switch_cpus_1.iew.iewExecutedInsts    249160053                       # Number of executed instructions
system.switch_cpus_1.iew.iewExecLoadInsts     57957448                       # Number of load instructions executed
system.switch_cpus_1.iew.iewExecSquashedInsts      6205161                       # Number of squashed instructions skipped in execute
system.switch_cpus_1.iew.exec_swp                   0                       # number of swp insts executed
system.switch_cpus_1.iew.exec_nop             6850466                       # number of nop insts executed
system.switch_cpus_1.iew.exec_refs           83177647                       # number of memory reference insts executed
system.switch_cpus_1.iew.exec_branches       36345894                       # Number of branches executed
system.switch_cpus_1.iew.exec_stores         25220199                       # Number of stores executed
system.switch_cpus_1.iew.exec_rate           1.288106                       # Inst execution rate
system.switch_cpus_1.iew.wb_sent            244627734                       # cumulative count of insts sent to commit
system.switch_cpus_1.iew.wb_count           243003182                       # cumulative count of insts written-back
system.switch_cpus_1.iew.wb_producers       136938101                       # num instructions producing a value
system.switch_cpus_1.iew.wb_consumers       173266245                       # num instructions consuming a value
system.switch_cpus_1.iew.wb_rate             1.256277                       # insts written-back per cycle
system.switch_cpus_1.iew.wb_fanout           0.790333                       # average fanout of values written-back
system.switch_cpus_1.commit.commitSquashedInsts     77297076                       # The number of squashed insts skipped by commit
system.switch_cpus_1.commit.commitNonSpecStalls          176                       # The number of times commit has been forced to stall to communicate backwards
system.switch_cpus_1.commit.branchMispredicts      3695142                       # The number of times a branch was mispredicted
system.switch_cpus_1.commit.committed_per_cycle::samples    167996434                       # Number of insts commited each cycle
system.switch_cpus_1.commit.committed_per_cycle::mean     1.222366                       # Number of insts commited each cycle
system.switch_cpus_1.commit.committed_per_cycle::stdev     2.309707                       # Number of insts commited each cycle
system.switch_cpus_1.commit.committed_per_cycle::underflows            0      0.00%      0.00% # Number of insts commited each cycle
system.switch_cpus_1.commit.committed_per_cycle::0    106806482     63.58%     63.58% # Number of insts commited each cycle
system.switch_cpus_1.commit.committed_per_cycle::1     25352693     15.09%     78.67% # Number of insts commited each cycle
system.switch_cpus_1.commit.committed_per_cycle::2      8741762      5.20%     83.87% # Number of insts commited each cycle
system.switch_cpus_1.commit.committed_per_cycle::3      5224288      3.11%     86.98% # Number of insts commited each cycle
system.switch_cpus_1.commit.committed_per_cycle::4      3421863      2.04%     89.02% # Number of insts commited each cycle
system.switch_cpus_1.commit.committed_per_cycle::5      2722592      1.62%     90.64% # Number of insts commited each cycle
system.switch_cpus_1.commit.committed_per_cycle::6      2313063      1.38%     92.02% # Number of insts commited each cycle
system.switch_cpus_1.commit.committed_per_cycle::7      1644292      0.98%     92.99% # Number of insts commited each cycle
system.switch_cpus_1.commit.committed_per_cycle::8     11769399      7.01%    100.00% # Number of insts commited each cycle
system.switch_cpus_1.commit.committed_per_cycle::overflows            0      0.00%    100.00% # Number of insts commited each cycle
system.switch_cpus_1.commit.committed_per_cycle::min_value            0                       # Number of insts commited each cycle
system.switch_cpus_1.commit.committed_per_cycle::max_value            8                       # Number of insts commited each cycle
system.switch_cpus_1.commit.committed_per_cycle::total    167996434                       # Number of insts commited each cycle
system.switch_cpus_1.commit.committedInsts    205353107                       # Number of instructions committed
system.switch_cpus_1.commit.committedOps    205353107                       # Number of ops (including micro ops) committed
system.switch_cpus_1.commit.swp_count               0                       # Number of s/w prefetches committed
system.switch_cpus_1.commit.refs             66421579                       # Number of memory references committed
system.switch_cpus_1.commit.loads            44121734                       # Number of loads committed
system.switch_cpus_1.commit.membars                88                       # Number of memory barriers committed
system.switch_cpus_1.commit.branches         30359423                       # Number of branches committed
system.switch_cpus_1.commit.fp_insts          1786208                       # Number of committed floating point instructions.
system.switch_cpus_1.commit.int_insts       197426184                       # Number of committed integer instructions.
system.switch_cpus_1.commit.function_calls      1752736                       # Number of function calls committed.
system.switch_cpus_1.commit.op_class_0::No_OpClass      5447375      2.65%      2.65% # Class of committed instruction
system.switch_cpus_1.commit.op_class_0::IntAlu    132113930     64.34%     66.99% # Class of committed instruction
system.switch_cpus_1.commit.op_class_0::IntMult        79596      0.04%     67.03% # Class of committed instruction
system.switch_cpus_1.commit.op_class_0::IntDiv            0      0.00%     67.03% # Class of committed instruction
system.switch_cpus_1.commit.op_class_0::FloatAdd       635244      0.31%     67.34% # Class of committed instruction
system.switch_cpus_1.commit.op_class_0::FloatCmp       335099      0.16%     67.50% # Class of committed instruction
system.switch_cpus_1.commit.op_class_0::FloatCvt       272825      0.13%     67.63% # Class of committed instruction
system.switch_cpus_1.commit.op_class_0::FloatMult            0      0.00%     67.63% # Class of committed instruction
system.switch_cpus_1.commit.op_class_0::FloatMultAcc            0      0.00%     67.63% # Class of committed instruction
system.switch_cpus_1.commit.op_class_0::FloatDiv        47371      0.02%     67.65% # Class of committed instruction
system.switch_cpus_1.commit.op_class_0::FloatMisc            0      0.00%     67.65% # Class of committed instruction
system.switch_cpus_1.commit.op_class_0::FloatSqrt            0      0.00%     67.65% # Class of committed instruction
system.switch_cpus_1.commit.op_class_0::SimdAdd            0      0.00%     67.65% # Class of committed instruction
system.switch_cpus_1.commit.op_class_0::SimdAddAcc            0      0.00%     67.65% # Class of committed instruction
system.switch_cpus_1.commit.op_class_0::SimdAlu            0      0.00%     67.65% # Class of committed instruction
system.switch_cpus_1.commit.op_class_0::SimdCmp            0      0.00%     67.65% # Class of committed instruction
system.switch_cpus_1.commit.op_class_0::SimdCvt            0      0.00%     67.65% # Class of committed instruction
system.switch_cpus_1.commit.op_class_0::SimdMisc            0      0.00%     67.65% # Class of committed instruction
system.switch_cpus_1.commit.op_class_0::SimdMult            0      0.00%     67.65% # Class of committed instruction
system.switch_cpus_1.commit.op_class_0::SimdMultAcc            0      0.00%     67.65% # Class of committed instruction
system.switch_cpus_1.commit.op_class_0::SimdShift            0      0.00%     67.65% # Class of committed instruction
system.switch_cpus_1.commit.op_class_0::SimdShiftAcc            0      0.00%     67.65% # Class of committed instruction
system.switch_cpus_1.commit.op_class_0::SimdSqrt            0      0.00%     67.65% # Class of committed instruction
system.switch_cpus_1.commit.op_class_0::SimdFloatAdd            0      0.00%     67.65% # Class of committed instruction
system.switch_cpus_1.commit.op_class_0::SimdFloatAlu            0      0.00%     67.65% # Class of committed instruction
system.switch_cpus_1.commit.op_class_0::SimdFloatCmp            0      0.00%     67.65% # Class of committed instruction
system.switch_cpus_1.commit.op_class_0::SimdFloatCvt            0      0.00%     67.65% # Class of committed instruction
system.switch_cpus_1.commit.op_class_0::SimdFloatDiv            0      0.00%     67.65% # Class of committed instruction
system.switch_cpus_1.commit.op_class_0::SimdFloatMisc            0      0.00%     67.65% # Class of committed instruction
system.switch_cpus_1.commit.op_class_0::SimdFloatMult            0      0.00%     67.65% # Class of committed instruction
system.switch_cpus_1.commit.op_class_0::SimdFloatMultAcc            0      0.00%     67.65% # Class of committed instruction
system.switch_cpus_1.commit.op_class_0::SimdFloatSqrt            0      0.00%     67.65% # Class of committed instruction
system.switch_cpus_1.commit.op_class_0::MemRead     43815278     21.34%     88.99% # Class of committed instruction
system.switch_cpus_1.commit.op_class_0::MemWrite     22110720     10.77%     99.76% # Class of committed instruction
system.switch_cpus_1.commit.op_class_0::FloatMemRead       306544      0.15%     99.91% # Class of committed instruction
system.switch_cpus_1.commit.op_class_0::FloatMemWrite       189125      0.09%    100.00% # Class of committed instruction
system.switch_cpus_1.commit.op_class_0::IprAccess            0      0.00%    100.00% # Class of committed instruction
system.switch_cpus_1.commit.op_class_0::InstPrefetch            0      0.00%    100.00% # Class of committed instruction
system.switch_cpus_1.commit.op_class_0::total    205353107                       # Class of committed instruction
system.switch_cpus_1.commit.bw_lim_events     11769399                       # number cycles where commit BW limit reached
system.switch_cpus_1.rob.rob_reads          437986731                       # The number of ROB reads
system.switch_cpus_1.rob.rob_writes         577278788                       # The number of ROB writes
system.switch_cpus_1.timesIdled               1025369                       # Number of times that the entire CPU went into an idle state and unscheduled itself
system.switch_cpus_1.idleCycles              13541812                       # Total number of cycles that the CPU has spent unscheduled due to idling
system.switch_cpus_1.committedInsts         200000006                       # Number of Instructions Simulated
system.switch_cpus_1.committedOps           200000006                       # Number of Ops (including micro ops) Simulated
system.switch_cpus_1.cpi                     0.967156                       # CPI: Cycles Per Instruction
system.switch_cpus_1.cpi_total               0.967156                       # CPI: Total CPI of All Threads
system.switch_cpus_1.ipc                     1.033959                       # IPC: Instructions Per Cycle
system.switch_cpus_1.ipc_total               1.033959                       # IPC: Total IPC of All Threads
system.switch_cpus_1.int_regfile_reads      334216722                       # number of integer regfile reads
system.switch_cpus_1.int_regfile_writes     183430330                       # number of integer regfile writes
system.switch_cpus_1.fp_regfile_reads         2123410                       # number of floating regfile reads
system.switch_cpus_1.fp_regfile_writes        1274824                       # number of floating regfile writes
system.switch_cpus_1.misc_regfile_reads         94472                       # number of misc regfile reads
system.switch_cpus_1.misc_regfile_writes        47313                       # number of misc regfile writes
system.tol3bus.snoop_filter.tot_requests      2929244                       # Total number of requests made to the snoop filter.
system.tol3bus.snoop_filter.hit_single_requests      1462584                       # Number of requests hitting in the snoop filter with a single holder of the requested data.
system.tol3bus.snoop_filter.hit_multi_requests            0                       # Number of requests hitting in the snoop filter with multiple (>1) holders of the requested data.
system.tol3bus.snoop_filter.tot_snoops           1026                       # Total number of snoops made to the snoop filter.
system.tol3bus.snoop_filter.hit_single_snoops         1026                       # Number of snoops hitting in the snoop filter with a single holder of the requested data.
system.tol3bus.snoop_filter.hit_multi_snoops            0                       # Number of snoops hitting in the snoop filter with multiple (>1) holders of the requested data.
system.tol3bus.pwrStateResidencyTicks::UNDEFINED 18805791415968                       # Cumulative time (in ticks) in various power states
system.tol3bus.trans_dist::ReadResp           1040872                       # Transaction distribution
system.tol3bus.trans_dist::WritebackDirty      1003744                       # Transaction distribution
system.tol3bus.trans_dist::CleanEvict          677892                       # Transaction distribution
system.tol3bus.trans_dist::ReadExReq           425788                       # Transaction distribution
system.tol3bus.trans_dist::ReadExResp          425788                       # Transaction distribution
system.tol3bus.trans_dist::ReadSharedReq      1040872                       # Transaction distribution
system.tol3bus.pkt_count_system.cpu.l2.mem_side::system.l3.cpu_side      4395904                       # Packet count per connected master and slave (bytes)
system.tol3bus.pkt_size_system.cpu.l2.mem_side::system.l3.cpu_side    147340160                       # Cumulative packet size per connected master and slave (bytes)
system.tol3bus.snoops                          219052                       # Total snoops (count)
system.tol3bus.snoopTraffic                  10765696                       # Total snoop traffic (bytes)
system.tol3bus.snoop_fanout::samples          1685712                       # Request fanout histogram
system.tol3bus.snoop_fanout::mean            0.000609                       # Request fanout histogram
system.tol3bus.snoop_fanout::stdev           0.024663                       # Request fanout histogram
system.tol3bus.snoop_fanout::underflows             0      0.00%      0.00% # Request fanout histogram
system.tol3bus.snoop_fanout::0                1684686     99.94%     99.94% # Request fanout histogram
system.tol3bus.snoop_fanout::1                   1026      0.06%    100.00% # Request fanout histogram
system.tol3bus.snoop_fanout::overflows              0      0.00%    100.00% # Request fanout histogram
system.tol3bus.snoop_fanout::min_value              0                       # Request fanout histogram
system.tol3bus.snoop_fanout::max_value              1                       # Request fanout histogram
system.tol3bus.snoop_fanout::total            1685712                       # Request fanout histogram
system.tol3bus.reqLayer0.occupancy         1253669742                       # Layer occupancy (ticks)
system.tol3bus.reqLayer0.utilization              0.1                       # Layer utilization (%)
system.tol3bus.respLayer0.occupancy         976795560                       # Layer occupancy (ticks)
system.tol3bus.respLayer0.utilization             0.1                       # Layer utilization (%)

---------- End Simulation Statistics   ----------
