
---------- Begin Simulation Statistics ----------
sim_seconds                                  1.092535                       # Number of seconds simulated
sim_ticks                                1092534606432                       # Number of ticks simulated
final_tick                               18745875997362                       # Number of ticks from beginning of simulation (restored from checkpoints and never reset)
sim_freq                                 1000000000000                       # Frequency of simulated ticks
host_inst_rate                                 548975                       # Simulator instruction rate (inst/s)
host_op_rate                                   548975                       # Simulator op (including micro ops) rate (op/s)
host_tick_rate                              499812251                       # Simulator tick rate (ticks/s)
host_mem_usage                                2395192                       # Number of bytes of host memory used
host_seconds                                  2185.89                       # Real time elapsed on the host
sim_insts                                  1200000011                       # Number of instructions simulated
sim_ops                                    1200000011                       # Number of ops (including micro ops) simulated
system.voltage_domain.voltage                       1                       # Voltage in Volts
system.clk_domain.clock                          1000                       # Clock period in ticks
system.mem_ctrls0.pwrStateResidencyTicks::UNDEFINED 18745875997362                       # Cumulative time (in ticks) in various power states
system.mem_ctrls0.bytes_read::cpu.inst            192                       # Number of bytes read from this memory
system.mem_ctrls0.bytes_read::switch_cpus.inst       165568                       # Number of bytes read from this memory
system.mem_ctrls0.bytes_read::switch_cpus.data      7745408                       # Number of bytes read from this memory
system.mem_ctrls0.bytes_read::switch_cpus_1.inst        26880                       # Number of bytes read from this memory
system.mem_ctrls0.bytes_read::switch_cpus_1.data      1289984                       # Number of bytes read from this memory
system.mem_ctrls0.bytes_read::total           9228032                       # Number of bytes read from this memory
system.mem_ctrls0.bytes_inst_read::cpu.inst          192                       # Number of instructions bytes read from this memory
system.mem_ctrls0.bytes_inst_read::switch_cpus.inst       165568                       # Number of instructions bytes read from this memory
system.mem_ctrls0.bytes_inst_read::switch_cpus_1.inst        26880                       # Number of instructions bytes read from this memory
system.mem_ctrls0.bytes_inst_read::total       192640                       # Number of instructions bytes read from this memory
system.mem_ctrls0.bytes_written::writebacks      5456960                       # Number of bytes written to this memory
system.mem_ctrls0.bytes_written::total        5456960                       # Number of bytes written to this memory
system.mem_ctrls0.num_reads::cpu.inst               3                       # Number of read requests responded to by this memory
system.mem_ctrls0.num_reads::switch_cpus.inst         2587                       # Number of read requests responded to by this memory
system.mem_ctrls0.num_reads::switch_cpus.data       121022                       # Number of read requests responded to by this memory
system.mem_ctrls0.num_reads::switch_cpus_1.inst          420                       # Number of read requests responded to by this memory
system.mem_ctrls0.num_reads::switch_cpus_1.data        20156                       # Number of read requests responded to by this memory
system.mem_ctrls0.num_reads::total             144188                       # Number of read requests responded to by this memory
system.mem_ctrls0.num_writes::writebacks        85265                       # Number of write requests responded to by this memory
system.mem_ctrls0.num_writes::total             85265                       # Number of write requests responded to by this memory
system.mem_ctrls0.bw_read::cpu.inst               176                       # Total read bandwidth from this memory (bytes/s)
system.mem_ctrls0.bw_read::switch_cpus.inst       151545                       # Total read bandwidth from this memory (bytes/s)
system.mem_ctrls0.bw_read::switch_cpus.data      7089394                       # Total read bandwidth from this memory (bytes/s)
system.mem_ctrls0.bw_read::switch_cpus_1.inst        24603                       # Total read bandwidth from this memory (bytes/s)
system.mem_ctrls0.bw_read::switch_cpus_1.data      1180726                       # Total read bandwidth from this memory (bytes/s)
system.mem_ctrls0.bw_read::total              8446444                       # Total read bandwidth from this memory (bytes/s)
system.mem_ctrls0.bw_inst_read::cpu.inst          176                       # Instruction read bandwidth from this memory (bytes/s)
system.mem_ctrls0.bw_inst_read::switch_cpus.inst       151545                       # Instruction read bandwidth from this memory (bytes/s)
system.mem_ctrls0.bw_inst_read::switch_cpus_1.inst        24603                       # Instruction read bandwidth from this memory (bytes/s)
system.mem_ctrls0.bw_inst_read::total          176324                       # Instruction read bandwidth from this memory (bytes/s)
system.mem_ctrls0.bw_write::writebacks        4994771                       # Write bandwidth from this memory (bytes/s)
system.mem_ctrls0.bw_write::total             4994771                       # Write bandwidth from this memory (bytes/s)
system.mem_ctrls0.bw_total::writebacks        4994771                       # Total bandwidth to/from this memory (bytes/s)
system.mem_ctrls0.bw_total::cpu.inst              176                       # Total bandwidth to/from this memory (bytes/s)
system.mem_ctrls0.bw_total::switch_cpus.inst       151545                       # Total bandwidth to/from this memory (bytes/s)
system.mem_ctrls0.bw_total::switch_cpus.data      7089394                       # Total bandwidth to/from this memory (bytes/s)
system.mem_ctrls0.bw_total::switch_cpus_1.inst        24603                       # Total bandwidth to/from this memory (bytes/s)
system.mem_ctrls0.bw_total::switch_cpus_1.data      1180726                       # Total bandwidth to/from this memory (bytes/s)
system.mem_ctrls0.bw_total::total            13441215                       # Total bandwidth to/from this memory (bytes/s)
system.mem_ctrls0.readReqs                     144188                       # Number of read requests accepted
system.mem_ctrls0.writeReqs                     85265                       # Number of write requests accepted
system.mem_ctrls0.readBursts                   144188                       # Number of DRAM read bursts, including those serviced by the write queue
system.mem_ctrls0.writeBursts                   85265                       # Number of DRAM write bursts, including those merged in the write queue
system.mem_ctrls0.bytesReadDRAM               9225536                       # Total number of bytes read from DRAM
system.mem_ctrls0.bytesReadWrQ                   2496                       # Total number of bytes read from write queue
system.mem_ctrls0.bytesWritten                5455232                       # Total number of bytes written to DRAM
system.mem_ctrls0.bytesReadSys                9228032                       # Total read bytes from the system interface side
system.mem_ctrls0.bytesWrittenSys             5456960                       # Total written bytes from the system interface side
system.mem_ctrls0.servicedByWrQ                    39                       # Number of DRAM read bursts serviced by the write queue
system.mem_ctrls0.mergedWrBursts                    0                       # Number of DRAM write bursts merged with an existing one
system.mem_ctrls0.neitherReadNorWriteReqs            0                       # Number of requests that are neither read nor write
system.mem_ctrls0.perBankRdBursts::0             8791                       # Per bank write bursts
system.mem_ctrls0.perBankRdBursts::1             9060                       # Per bank write bursts
system.mem_ctrls0.perBankRdBursts::2             9123                       # Per bank write bursts
system.mem_ctrls0.perBankRdBursts::3             9578                       # Per bank write bursts
system.mem_ctrls0.perBankRdBursts::4             9457                       # Per bank write bursts
system.mem_ctrls0.perBankRdBursts::5             9044                       # Per bank write bursts
system.mem_ctrls0.perBankRdBursts::6             8637                       # Per bank write bursts
system.mem_ctrls0.perBankRdBursts::7             8778                       # Per bank write bursts
system.mem_ctrls0.perBankRdBursts::8             9281                       # Per bank write bursts
system.mem_ctrls0.perBankRdBursts::9             9316                       # Per bank write bursts
system.mem_ctrls0.perBankRdBursts::10            8794                       # Per bank write bursts
system.mem_ctrls0.perBankRdBursts::11            9148                       # Per bank write bursts
system.mem_ctrls0.perBankRdBursts::12            8987                       # Per bank write bursts
system.mem_ctrls0.perBankRdBursts::13            8919                       # Per bank write bursts
system.mem_ctrls0.perBankRdBursts::14            8725                       # Per bank write bursts
system.mem_ctrls0.perBankRdBursts::15            8511                       # Per bank write bursts
system.mem_ctrls0.perBankWrBursts::0             5482                       # Per bank write bursts
system.mem_ctrls0.perBankWrBursts::1             5621                       # Per bank write bursts
system.mem_ctrls0.perBankWrBursts::2             5309                       # Per bank write bursts
system.mem_ctrls0.perBankWrBursts::3             5557                       # Per bank write bursts
system.mem_ctrls0.perBankWrBursts::4             5416                       # Per bank write bursts
system.mem_ctrls0.perBankWrBursts::5             5293                       # Per bank write bursts
system.mem_ctrls0.perBankWrBursts::6             5019                       # Per bank write bursts
system.mem_ctrls0.perBankWrBursts::7             5043                       # Per bank write bursts
system.mem_ctrls0.perBankWrBursts::8             5177                       # Per bank write bursts
system.mem_ctrls0.perBankWrBursts::9             5248                       # Per bank write bursts
system.mem_ctrls0.perBankWrBursts::10            5364                       # Per bank write bursts
system.mem_ctrls0.perBankWrBursts::11            5666                       # Per bank write bursts
system.mem_ctrls0.perBankWrBursts::12            5438                       # Per bank write bursts
system.mem_ctrls0.perBankWrBursts::13            5259                       # Per bank write bursts
system.mem_ctrls0.perBankWrBursts::14            5112                       # Per bank write bursts
system.mem_ctrls0.perBankWrBursts::15            5234                       # Per bank write bursts
system.mem_ctrls0.numRdRetry                        0                       # Number of times read queue was full causing retry
system.mem_ctrls0.numWrRetry                        0                       # Number of times write queue was full causing retry
system.mem_ctrls0.totGap                 1092532594113                       # Total gap between requests
system.mem_ctrls0.readPktSize::0                    0                       # Read request sizes (log2)
system.mem_ctrls0.readPktSize::1                    0                       # Read request sizes (log2)
system.mem_ctrls0.readPktSize::2                    0                       # Read request sizes (log2)
system.mem_ctrls0.readPktSize::3                    0                       # Read request sizes (log2)
system.mem_ctrls0.readPktSize::4                    0                       # Read request sizes (log2)
system.mem_ctrls0.readPktSize::5                    0                       # Read request sizes (log2)
system.mem_ctrls0.readPktSize::6               144188                       # Read request sizes (log2)
system.mem_ctrls0.writePktSize::0                   0                       # Write request sizes (log2)
system.mem_ctrls0.writePktSize::1                   0                       # Write request sizes (log2)
system.mem_ctrls0.writePktSize::2                   0                       # Write request sizes (log2)
system.mem_ctrls0.writePktSize::3                   0                       # Write request sizes (log2)
system.mem_ctrls0.writePktSize::4                   0                       # Write request sizes (log2)
system.mem_ctrls0.writePktSize::5                   0                       # Write request sizes (log2)
system.mem_ctrls0.writePktSize::6               85265                       # Write request sizes (log2)
system.mem_ctrls0.rdQLenPdf::0                 142518                       # What read queue length does an incoming req see
system.mem_ctrls0.rdQLenPdf::1                   1583                       # What read queue length does an incoming req see
system.mem_ctrls0.rdQLenPdf::2                     45                       # What read queue length does an incoming req see
system.mem_ctrls0.rdQLenPdf::3                      1                       # What read queue length does an incoming req see
system.mem_ctrls0.rdQLenPdf::4                      1                       # What read queue length does an incoming req see
system.mem_ctrls0.rdQLenPdf::5                      1                       # What read queue length does an incoming req see
system.mem_ctrls0.rdQLenPdf::6                      0                       # What read queue length does an incoming req see
system.mem_ctrls0.rdQLenPdf::7                      0                       # What read queue length does an incoming req see
system.mem_ctrls0.rdQLenPdf::8                      0                       # What read queue length does an incoming req see
system.mem_ctrls0.rdQLenPdf::9                      0                       # What read queue length does an incoming req see
system.mem_ctrls0.rdQLenPdf::10                     0                       # What read queue length does an incoming req see
system.mem_ctrls0.rdQLenPdf::11                     0                       # What read queue length does an incoming req see
system.mem_ctrls0.rdQLenPdf::12                     0                       # What read queue length does an incoming req see
system.mem_ctrls0.rdQLenPdf::13                     0                       # What read queue length does an incoming req see
system.mem_ctrls0.rdQLenPdf::14                     0                       # What read queue length does an incoming req see
system.mem_ctrls0.rdQLenPdf::15                     0                       # What read queue length does an incoming req see
system.mem_ctrls0.rdQLenPdf::16                     0                       # What read queue length does an incoming req see
system.mem_ctrls0.rdQLenPdf::17                     0                       # What read queue length does an incoming req see
system.mem_ctrls0.rdQLenPdf::18                     0                       # What read queue length does an incoming req see
system.mem_ctrls0.rdQLenPdf::19                     0                       # What read queue length does an incoming req see
system.mem_ctrls0.rdQLenPdf::20                     0                       # What read queue length does an incoming req see
system.mem_ctrls0.rdQLenPdf::21                     0                       # What read queue length does an incoming req see
system.mem_ctrls0.rdQLenPdf::22                     0                       # What read queue length does an incoming req see
system.mem_ctrls0.rdQLenPdf::23                     0                       # What read queue length does an incoming req see
system.mem_ctrls0.rdQLenPdf::24                     0                       # What read queue length does an incoming req see
system.mem_ctrls0.rdQLenPdf::25                     0                       # What read queue length does an incoming req see
system.mem_ctrls0.rdQLenPdf::26                     0                       # What read queue length does an incoming req see
system.mem_ctrls0.rdQLenPdf::27                     0                       # What read queue length does an incoming req see
system.mem_ctrls0.rdQLenPdf::28                     0                       # What read queue length does an incoming req see
system.mem_ctrls0.rdQLenPdf::29                     0                       # What read queue length does an incoming req see
system.mem_ctrls0.rdQLenPdf::30                     0                       # What read queue length does an incoming req see
system.mem_ctrls0.rdQLenPdf::31                     0                       # What read queue length does an incoming req see
system.mem_ctrls0.wrQLenPdf::0                      2                       # What write queue length does an incoming req see
system.mem_ctrls0.wrQLenPdf::1                      2                       # What write queue length does an incoming req see
system.mem_ctrls0.wrQLenPdf::2                      2                       # What write queue length does an incoming req see
system.mem_ctrls0.wrQLenPdf::3                      2                       # What write queue length does an incoming req see
system.mem_ctrls0.wrQLenPdf::4                      2                       # What write queue length does an incoming req see
system.mem_ctrls0.wrQLenPdf::5                      2                       # What write queue length does an incoming req see
system.mem_ctrls0.wrQLenPdf::6                      2                       # What write queue length does an incoming req see
system.mem_ctrls0.wrQLenPdf::7                      2                       # What write queue length does an incoming req see
system.mem_ctrls0.wrQLenPdf::8                      2                       # What write queue length does an incoming req see
system.mem_ctrls0.wrQLenPdf::9                      2                       # What write queue length does an incoming req see
system.mem_ctrls0.wrQLenPdf::10                     2                       # What write queue length does an incoming req see
system.mem_ctrls0.wrQLenPdf::11                     2                       # What write queue length does an incoming req see
system.mem_ctrls0.wrQLenPdf::12                     2                       # What write queue length does an incoming req see
system.mem_ctrls0.wrQLenPdf::13                     2                       # What write queue length does an incoming req see
system.mem_ctrls0.wrQLenPdf::14                     2                       # What write queue length does an incoming req see
system.mem_ctrls0.wrQLenPdf::15                  3858                       # What write queue length does an incoming req see
system.mem_ctrls0.wrQLenPdf::16                  3895                       # What write queue length does an incoming req see
system.mem_ctrls0.wrQLenPdf::17                  4771                       # What write queue length does an incoming req see
system.mem_ctrls0.wrQLenPdf::18                  4833                       # What write queue length does an incoming req see
system.mem_ctrls0.wrQLenPdf::19                  4839                       # What write queue length does an incoming req see
system.mem_ctrls0.wrQLenPdf::20                  4830                       # What write queue length does an incoming req see
system.mem_ctrls0.wrQLenPdf::21                  4836                       # What write queue length does an incoming req see
system.mem_ctrls0.wrQLenPdf::22                  4849                       # What write queue length does an incoming req see
system.mem_ctrls0.wrQLenPdf::23                  4846                       # What write queue length does an incoming req see
system.mem_ctrls0.wrQLenPdf::24                  4832                       # What write queue length does an incoming req see
system.mem_ctrls0.wrQLenPdf::25                  4837                       # What write queue length does an incoming req see
system.mem_ctrls0.wrQLenPdf::26                  4833                       # What write queue length does an incoming req see
system.mem_ctrls0.wrQLenPdf::27                  4847                       # What write queue length does an incoming req see
system.mem_ctrls0.wrQLenPdf::28                  4841                       # What write queue length does an incoming req see
system.mem_ctrls0.wrQLenPdf::29                  4881                       # What write queue length does an incoming req see
system.mem_ctrls0.wrQLenPdf::30                  4835                       # What write queue length does an incoming req see
system.mem_ctrls0.wrQLenPdf::31                  4815                       # What write queue length does an incoming req see
system.mem_ctrls0.wrQLenPdf::32                  4814                       # What write queue length does an incoming req see
system.mem_ctrls0.wrQLenPdf::33                   102                       # What write queue length does an incoming req see
system.mem_ctrls0.wrQLenPdf::34                    20                       # What write queue length does an incoming req see
system.mem_ctrls0.wrQLenPdf::35                     8                       # What write queue length does an incoming req see
system.mem_ctrls0.wrQLenPdf::36                     5                       # What write queue length does an incoming req see
system.mem_ctrls0.wrQLenPdf::37                     3                       # What write queue length does an incoming req see
system.mem_ctrls0.wrQLenPdf::38                     2                       # What write queue length does an incoming req see
system.mem_ctrls0.wrQLenPdf::39                     2                       # What write queue length does an incoming req see
system.mem_ctrls0.wrQLenPdf::40                     1                       # What write queue length does an incoming req see
system.mem_ctrls0.wrQLenPdf::41                     0                       # What write queue length does an incoming req see
system.mem_ctrls0.wrQLenPdf::42                     0                       # What write queue length does an incoming req see
system.mem_ctrls0.wrQLenPdf::43                     0                       # What write queue length does an incoming req see
system.mem_ctrls0.wrQLenPdf::44                     0                       # What write queue length does an incoming req see
system.mem_ctrls0.wrQLenPdf::45                     0                       # What write queue length does an incoming req see
system.mem_ctrls0.wrQLenPdf::46                     0                       # What write queue length does an incoming req see
system.mem_ctrls0.wrQLenPdf::47                     0                       # What write queue length does an incoming req see
system.mem_ctrls0.wrQLenPdf::48                     0                       # What write queue length does an incoming req see
system.mem_ctrls0.wrQLenPdf::49                     0                       # What write queue length does an incoming req see
system.mem_ctrls0.wrQLenPdf::50                     0                       # What write queue length does an incoming req see
system.mem_ctrls0.wrQLenPdf::51                     0                       # What write queue length does an incoming req see
system.mem_ctrls0.wrQLenPdf::52                     0                       # What write queue length does an incoming req see
system.mem_ctrls0.wrQLenPdf::53                     0                       # What write queue length does an incoming req see
system.mem_ctrls0.wrQLenPdf::54                     0                       # What write queue length does an incoming req see
system.mem_ctrls0.wrQLenPdf::55                     0                       # What write queue length does an incoming req see
system.mem_ctrls0.wrQLenPdf::56                     0                       # What write queue length does an incoming req see
system.mem_ctrls0.wrQLenPdf::57                     0                       # What write queue length does an incoming req see
system.mem_ctrls0.wrQLenPdf::58                     0                       # What write queue length does an incoming req see
system.mem_ctrls0.wrQLenPdf::59                     0                       # What write queue length does an incoming req see
system.mem_ctrls0.wrQLenPdf::60                     0                       # What write queue length does an incoming req see
system.mem_ctrls0.wrQLenPdf::61                     0                       # What write queue length does an incoming req see
system.mem_ctrls0.wrQLenPdf::62                     0                       # What write queue length does an incoming req see
system.mem_ctrls0.wrQLenPdf::63                     0                       # What write queue length does an incoming req see
system.mem_ctrls0.bytesPerActivate::samples       201818                       # Bytes accessed per row activation
system.mem_ctrls0.bytesPerActivate::mean    72.742610                       # Bytes accessed per row activation
system.mem_ctrls0.bytesPerActivate::gmean    68.273220                       # Bytes accessed per row activation
system.mem_ctrls0.bytesPerActivate::stdev    55.203687                       # Bytes accessed per row activation
system.mem_ctrls0.bytesPerActivate::0-127       187176     92.74%     92.74% # Bytes accessed per row activation
system.mem_ctrls0.bytesPerActivate::128-255        12891      6.39%     99.13% # Bytes accessed per row activation
system.mem_ctrls0.bytesPerActivate::256-383          711      0.35%     99.48% # Bytes accessed per row activation
system.mem_ctrls0.bytesPerActivate::384-511          248      0.12%     99.61% # Bytes accessed per row activation
system.mem_ctrls0.bytesPerActivate::512-639          165      0.08%     99.69% # Bytes accessed per row activation
system.mem_ctrls0.bytesPerActivate::640-767          117      0.06%     99.75% # Bytes accessed per row activation
system.mem_ctrls0.bytesPerActivate::768-895          106      0.05%     99.80% # Bytes accessed per row activation
system.mem_ctrls0.bytesPerActivate::896-1023           62      0.03%     99.83% # Bytes accessed per row activation
system.mem_ctrls0.bytesPerActivate::1024-1151          342      0.17%    100.00% # Bytes accessed per row activation
system.mem_ctrls0.bytesPerActivate::total       201818                       # Bytes accessed per row activation
system.mem_ctrls0.rdPerTurnAround::samples         4815                       # Reads before turning the bus around for writes
system.mem_ctrls0.rdPerTurnAround::mean     29.937487                       # Reads before turning the bus around for writes
system.mem_ctrls0.rdPerTurnAround::stdev   378.571148                       # Reads before turning the bus around for writes
system.mem_ctrls0.rdPerTurnAround::0-1023         4814     99.98%     99.98% # Reads before turning the bus around for writes
system.mem_ctrls0.rdPerTurnAround::25600-26623            1      0.02%    100.00% # Reads before turning the bus around for writes
system.mem_ctrls0.rdPerTurnAround::total         4815                       # Reads before turning the bus around for writes
system.mem_ctrls0.wrPerTurnAround::samples         4815                       # Writes before turning the bus around for reads
system.mem_ctrls0.wrPerTurnAround::mean     17.702596                       # Writes before turning the bus around for reads
system.mem_ctrls0.wrPerTurnAround::gmean    17.677700                       # Writes before turning the bus around for reads
system.mem_ctrls0.wrPerTurnAround::stdev     0.934733                       # Writes before turning the bus around for reads
system.mem_ctrls0.wrPerTurnAround::16             929     19.29%     19.29% # Writes before turning the bus around for reads
system.mem_ctrls0.wrPerTurnAround::17              21      0.44%     19.73% # Writes before turning the bus around for reads
system.mem_ctrls0.wrPerTurnAround::18            3517     73.04%     92.77% # Writes before turning the bus around for reads
system.mem_ctrls0.wrPerTurnAround::19             294      6.11%     98.88% # Writes before turning the bus around for reads
system.mem_ctrls0.wrPerTurnAround::20              36      0.75%     99.63% # Writes before turning the bus around for reads
system.mem_ctrls0.wrPerTurnAround::21               8      0.17%     99.79% # Writes before turning the bus around for reads
system.mem_ctrls0.wrPerTurnAround::22               5      0.10%     99.90% # Writes before turning the bus around for reads
system.mem_ctrls0.wrPerTurnAround::23               1      0.02%     99.92% # Writes before turning the bus around for reads
system.mem_ctrls0.wrPerTurnAround::24               2      0.04%     99.96% # Writes before turning the bus around for reads
system.mem_ctrls0.wrPerTurnAround::26               1      0.02%     99.98% # Writes before turning the bus around for reads
system.mem_ctrls0.wrPerTurnAround::30               1      0.02%    100.00% # Writes before turning the bus around for reads
system.mem_ctrls0.wrPerTurnAround::total         4815                       # Writes before turning the bus around for reads
system.mem_ctrls0.totQLat                 26992903779                       # Total ticks spent queuing
system.mem_ctrls0.totMemAccLat            29695697529                       # Total ticks spent from burst creation until serviced by the DRAM
system.mem_ctrls0.totBusLat                 720745000                       # Total ticks spent in databus transfers
system.mem_ctrls0.avgQLat                   187256.96                       # Average queueing delay per DRAM burst
system.mem_ctrls0.avgBusLat                   5000.00                       # Average bus latency per DRAM burst
system.mem_ctrls0.avgMemAccLat              206006.96                       # Average memory access latency per DRAM burst
system.mem_ctrls0.avgRdBW                        8.44                       # Average DRAM read bandwidth in MiByte/s
system.mem_ctrls0.avgWrBW                        4.99                       # Average achieved write bandwidth in MiByte/s
system.mem_ctrls0.avgRdBWSys                     8.45                       # Average system read bandwidth in MiByte/s
system.mem_ctrls0.avgWrBWSys                     4.99                       # Average system write bandwidth in MiByte/s
system.mem_ctrls0.peakBW                     12800.00                       # Theoretical peak bandwidth in MiByte/s
system.mem_ctrls0.busUtil                        0.10                       # Data bus utilization in percentage
system.mem_ctrls0.busUtilRead                    0.07                       # Data bus utilization in percentage for reads
system.mem_ctrls0.busUtilWrite                   0.04                       # Data bus utilization in percentage for writes
system.mem_ctrls0.avgRdQLen                      1.00                       # Average read queue length when enqueuing
system.mem_ctrls0.avgWrQLen                     20.82                       # Average write queue length when enqueuing
system.mem_ctrls0.readRowHits                   18620                       # Number of row buffer hits during reads
system.mem_ctrls0.writeRowHits                   8949                       # Number of row buffer hits during writes
system.mem_ctrls0.readRowHitRate                12.92                       # Row buffer hit rate for reads
system.mem_ctrls0.writeRowHitRate               10.50                       # Row buffer hit rate for writes
system.mem_ctrls0.avgGap                   4761465.72                       # Average gap between requests
system.mem_ctrls0.pageHitRate                   12.02                       # Row buffer hit rate, read and write combined
system.mem_ctrls0_0.actEnergy               724060260                       # Energy for activate commands per rank (pJ)
system.mem_ctrls0_0.preEnergy               384847155                       # Energy for precharge commands per rank (pJ)
system.mem_ctrls0_0.readEnergy              517421520                       # Energy for read commands per rank (pJ)
system.mem_ctrls0_0.writeEnergy             223102800                       # Energy for write commands per rank (pJ)
system.mem_ctrls0_0.refreshEnergy        56376010080.000015                       # Energy for refresh commands per rank (pJ)
system.mem_ctrls0_0.actBackEnergy         19204699920                       # Energy for active background per rank (pJ)
system.mem_ctrls0_0.preBackEnergy          3295548480                       # Energy for precharge background per rank (pJ)
system.mem_ctrls0_0.actPowerDownEnergy   111631717260                       # Energy for active power-down per rank (pJ)
system.mem_ctrls0_0.prePowerDownEnergy    94021235040                       # Energy for precharge power-down per rank (pJ)
system.mem_ctrls0_0.selfRefreshEnergy    145770477000                       # Energy for self refresh per rank (pJ)
system.mem_ctrls0_0.totalEnergy          432176138265                       # Total energy per rank (pJ)
system.mem_ctrls0_0.averagePower           395.572034                       # Core power per rank (mW)
system.mem_ctrls0_0.totalIdleTime        1041774926045                       # Total Idle time Per DRAM Rank
system.mem_ctrls0_0.memoryStateTime::IDLE   6605130564                       # Time in different power states
system.mem_ctrls0_0.memoryStateTime::REF  23994132000                       # Time in different power states
system.mem_ctrls0_0.memoryStateTime::SREF 552123409432                       # Time in different power states
system.mem_ctrls0_0.memoryStateTime::PRE_PDN 244846953765                       # Time in different power states
system.mem_ctrls0_0.memoryStateTime::ACT  20158399091                       # Time in different power states
system.mem_ctrls0_0.memoryStateTime::ACT_PDN 244806581580                       # Time in different power states
system.mem_ctrls0_1.actEnergy               716920260                       # Energy for activate commands per rank (pJ)
system.mem_ctrls0_1.preEnergy               381052155                       # Energy for precharge commands per rank (pJ)
system.mem_ctrls0_1.readEnergy              511802340                       # Energy for read commands per rank (pJ)
system.mem_ctrls0_1.writeEnergy             221839560                       # Energy for write commands per rank (pJ)
system.mem_ctrls0_1.refreshEnergy        56397522480.000015                       # Energy for refresh commands per rank (pJ)
system.mem_ctrls0_1.actBackEnergy         19303973400                       # Energy for active background per rank (pJ)
system.mem_ctrls0_1.preBackEnergy          3317418720                       # Energy for precharge background per rank (pJ)
system.mem_ctrls0_1.actPowerDownEnergy   110990842890                       # Energy for active power-down per rank (pJ)
system.mem_ctrls0_1.prePowerDownEnergy    93960206880                       # Energy for precharge power-down per rank (pJ)
system.mem_ctrls0_1.selfRefreshEnergy    146199579990                       # Energy for self refresh per rank (pJ)
system.mem_ctrls0_1.totalEnergy          432028347645                       # Total energy per rank (pJ)
system.mem_ctrls0_1.averagePower           395.436760                       # Core power per rank (mW)
system.mem_ctrls0_1.totalIdleTime        1041497288573                       # Total Idle time Per DRAM Rank
system.mem_ctrls0_1.memoryStateTime::IDLE   6662917521                       # Time in different power states
system.mem_ctrls0_1.memoryStateTime::REF  24004192000                       # Time in different power states
system.mem_ctrls0_1.memoryStateTime::SREF 553412615307                       # Time in different power states
system.mem_ctrls0_1.memoryStateTime::PRE_PDN 244688018513                       # Time in different power states
system.mem_ctrls0_1.memoryStateTime::ACT  20365886713                       # Time in different power states
system.mem_ctrls0_1.memoryStateTime::ACT_PDN 243400976378                       # Time in different power states
system.mem_ctrls1.pwrStateResidencyTicks::UNDEFINED 18745875997362                       # Cumulative time (in ticks) in various power states
system.mem_ctrls1.bytes_read::cpu.inst            128                       # Number of bytes read from this memory
system.mem_ctrls1.bytes_read::cpu.data            192                       # Number of bytes read from this memory
system.mem_ctrls1.bytes_read::switch_cpus.inst       162304                       # Number of bytes read from this memory
system.mem_ctrls1.bytes_read::switch_cpus.data      7777536                       # Number of bytes read from this memory
system.mem_ctrls1.bytes_read::switch_cpus_1.inst        27072                       # Number of bytes read from this memory
system.mem_ctrls1.bytes_read::switch_cpus_1.data      1310336                       # Number of bytes read from this memory
system.mem_ctrls1.bytes_read::total           9277568                       # Number of bytes read from this memory
system.mem_ctrls1.bytes_inst_read::cpu.inst          128                       # Number of instructions bytes read from this memory
system.mem_ctrls1.bytes_inst_read::switch_cpus.inst       162304                       # Number of instructions bytes read from this memory
system.mem_ctrls1.bytes_inst_read::switch_cpus_1.inst        27072                       # Number of instructions bytes read from this memory
system.mem_ctrls1.bytes_inst_read::total       189504                       # Number of instructions bytes read from this memory
system.mem_ctrls1.bytes_written::writebacks      5471808                       # Number of bytes written to this memory
system.mem_ctrls1.bytes_written::total        5471808                       # Number of bytes written to this memory
system.mem_ctrls1.num_reads::cpu.inst               2                       # Number of read requests responded to by this memory
system.mem_ctrls1.num_reads::cpu.data               3                       # Number of read requests responded to by this memory
system.mem_ctrls1.num_reads::switch_cpus.inst         2536                       # Number of read requests responded to by this memory
system.mem_ctrls1.num_reads::switch_cpus.data       121524                       # Number of read requests responded to by this memory
system.mem_ctrls1.num_reads::switch_cpus_1.inst          423                       # Number of read requests responded to by this memory
system.mem_ctrls1.num_reads::switch_cpus_1.data        20474                       # Number of read requests responded to by this memory
system.mem_ctrls1.num_reads::total             144962                       # Number of read requests responded to by this memory
system.mem_ctrls1.num_writes::writebacks        85497                       # Number of write requests responded to by this memory
system.mem_ctrls1.num_writes::total             85497                       # Number of write requests responded to by this memory
system.mem_ctrls1.bw_read::cpu.inst               117                       # Total read bandwidth from this memory (bytes/s)
system.mem_ctrls1.bw_read::cpu.data               176                       # Total read bandwidth from this memory (bytes/s)
system.mem_ctrls1.bw_read::switch_cpus.inst       148557                       # Total read bandwidth from this memory (bytes/s)
system.mem_ctrls1.bw_read::switch_cpus.data      7118801                       # Total read bandwidth from this memory (bytes/s)
system.mem_ctrls1.bw_read::switch_cpus_1.inst        24779                       # Total read bandwidth from this memory (bytes/s)
system.mem_ctrls1.bw_read::switch_cpus_1.data      1199354                       # Total read bandwidth from this memory (bytes/s)
system.mem_ctrls1.bw_read::total              8491784                       # Total read bandwidth from this memory (bytes/s)
system.mem_ctrls1.bw_inst_read::cpu.inst          117                       # Instruction read bandwidth from this memory (bytes/s)
system.mem_ctrls1.bw_inst_read::switch_cpus.inst       148557                       # Instruction read bandwidth from this memory (bytes/s)
system.mem_ctrls1.bw_inst_read::switch_cpus_1.inst        24779                       # Instruction read bandwidth from this memory (bytes/s)
system.mem_ctrls1.bw_inst_read::total          173454                       # Instruction read bandwidth from this memory (bytes/s)
system.mem_ctrls1.bw_write::writebacks        5008361                       # Write bandwidth from this memory (bytes/s)
system.mem_ctrls1.bw_write::total             5008361                       # Write bandwidth from this memory (bytes/s)
system.mem_ctrls1.bw_total::writebacks        5008361                       # Total bandwidth to/from this memory (bytes/s)
system.mem_ctrls1.bw_total::cpu.inst              117                       # Total bandwidth to/from this memory (bytes/s)
system.mem_ctrls1.bw_total::cpu.data              176                       # Total bandwidth to/from this memory (bytes/s)
system.mem_ctrls1.bw_total::switch_cpus.inst       148557                       # Total bandwidth to/from this memory (bytes/s)
system.mem_ctrls1.bw_total::switch_cpus.data      7118801                       # Total bandwidth to/from this memory (bytes/s)
system.mem_ctrls1.bw_total::switch_cpus_1.inst        24779                       # Total bandwidth to/from this memory (bytes/s)
system.mem_ctrls1.bw_total::switch_cpus_1.data      1199354                       # Total bandwidth to/from this memory (bytes/s)
system.mem_ctrls1.bw_total::total            13500145                       # Total bandwidth to/from this memory (bytes/s)
system.mem_ctrls1.readReqs                     144962                       # Number of read requests accepted
system.mem_ctrls1.writeReqs                     85497                       # Number of write requests accepted
system.mem_ctrls1.readBursts                   144962                       # Number of DRAM read bursts, including those serviced by the write queue
system.mem_ctrls1.writeBursts                   85497                       # Number of DRAM write bursts, including those merged in the write queue
system.mem_ctrls1.bytesReadDRAM               9274752                       # Total number of bytes read from DRAM
system.mem_ctrls1.bytesReadWrQ                   2816                       # Total number of bytes read from write queue
system.mem_ctrls1.bytesWritten                5470592                       # Total number of bytes written to DRAM
system.mem_ctrls1.bytesReadSys                9277568                       # Total read bytes from the system interface side
system.mem_ctrls1.bytesWrittenSys             5471808                       # Total written bytes from the system interface side
system.mem_ctrls1.servicedByWrQ                    44                       # Number of DRAM read bursts serviced by the write queue
system.mem_ctrls1.mergedWrBursts                    0                       # Number of DRAM write bursts merged with an existing one
system.mem_ctrls1.neitherReadNorWriteReqs            0                       # Number of requests that are neither read nor write
system.mem_ctrls1.perBankRdBursts::0             8864                       # Per bank write bursts
system.mem_ctrls1.perBankRdBursts::1             9023                       # Per bank write bursts
system.mem_ctrls1.perBankRdBursts::2             9157                       # Per bank write bursts
system.mem_ctrls1.perBankRdBursts::3             9513                       # Per bank write bursts
system.mem_ctrls1.perBankRdBursts::4             9436                       # Per bank write bursts
system.mem_ctrls1.perBankRdBursts::5             9235                       # Per bank write bursts
system.mem_ctrls1.perBankRdBursts::6             8635                       # Per bank write bursts
system.mem_ctrls1.perBankRdBursts::7             8893                       # Per bank write bursts
system.mem_ctrls1.perBankRdBursts::8             9252                       # Per bank write bursts
system.mem_ctrls1.perBankRdBursts::9             9404                       # Per bank write bursts
system.mem_ctrls1.perBankRdBursts::10            8944                       # Per bank write bursts
system.mem_ctrls1.perBankRdBursts::11            9334                       # Per bank write bursts
system.mem_ctrls1.perBankRdBursts::12            9082                       # Per bank write bursts
system.mem_ctrls1.perBankRdBursts::13            8898                       # Per bank write bursts
system.mem_ctrls1.perBankRdBursts::14            8596                       # Per bank write bursts
system.mem_ctrls1.perBankRdBursts::15            8652                       # Per bank write bursts
system.mem_ctrls1.perBankWrBursts::0             5457                       # Per bank write bursts
system.mem_ctrls1.perBankWrBursts::1             5575                       # Per bank write bursts
system.mem_ctrls1.perBankWrBursts::2             5337                       # Per bank write bursts
system.mem_ctrls1.perBankWrBursts::3             5461                       # Per bank write bursts
system.mem_ctrls1.perBankWrBursts::4             5406                       # Per bank write bursts
system.mem_ctrls1.perBankWrBursts::5             5347                       # Per bank write bursts
system.mem_ctrls1.perBankWrBursts::6             5005                       # Per bank write bursts
system.mem_ctrls1.perBankWrBursts::7             5079                       # Per bank write bursts
system.mem_ctrls1.perBankWrBursts::8             5161                       # Per bank write bursts
system.mem_ctrls1.perBankWrBursts::9             5254                       # Per bank write bursts
system.mem_ctrls1.perBankWrBursts::10            5372                       # Per bank write bursts
system.mem_ctrls1.perBankWrBursts::11            5838                       # Per bank write bursts
system.mem_ctrls1.perBankWrBursts::12            5532                       # Per bank write bursts
system.mem_ctrls1.perBankWrBursts::13            5234                       # Per bank write bursts
system.mem_ctrls1.perBankWrBursts::14            5126                       # Per bank write bursts
system.mem_ctrls1.perBankWrBursts::15            5294                       # Per bank write bursts
system.mem_ctrls1.numRdRetry                        0                       # Number of times read queue was full causing retry
system.mem_ctrls1.numWrRetry                        0                       # Number of times write queue was full causing retry
system.mem_ctrls1.totGap                 1092534458913                       # Total gap between requests
system.mem_ctrls1.readPktSize::0                    0                       # Read request sizes (log2)
system.mem_ctrls1.readPktSize::1                    0                       # Read request sizes (log2)
system.mem_ctrls1.readPktSize::2                    0                       # Read request sizes (log2)
system.mem_ctrls1.readPktSize::3                    0                       # Read request sizes (log2)
system.mem_ctrls1.readPktSize::4                    0                       # Read request sizes (log2)
system.mem_ctrls1.readPktSize::5                    0                       # Read request sizes (log2)
system.mem_ctrls1.readPktSize::6               144962                       # Read request sizes (log2)
system.mem_ctrls1.writePktSize::0                   0                       # Write request sizes (log2)
system.mem_ctrls1.writePktSize::1                   0                       # Write request sizes (log2)
system.mem_ctrls1.writePktSize::2                   0                       # Write request sizes (log2)
system.mem_ctrls1.writePktSize::3                   0                       # Write request sizes (log2)
system.mem_ctrls1.writePktSize::4                   0                       # Write request sizes (log2)
system.mem_ctrls1.writePktSize::5                   0                       # Write request sizes (log2)
system.mem_ctrls1.writePktSize::6               85497                       # Write request sizes (log2)
system.mem_ctrls1.rdQLenPdf::0                 143165                       # What read queue length does an incoming req see
system.mem_ctrls1.rdQLenPdf::1                   1712                       # What read queue length does an incoming req see
system.mem_ctrls1.rdQLenPdf::2                     40                       # What read queue length does an incoming req see
system.mem_ctrls1.rdQLenPdf::3                      1                       # What read queue length does an incoming req see
system.mem_ctrls1.rdQLenPdf::4                      0                       # What read queue length does an incoming req see
system.mem_ctrls1.rdQLenPdf::5                      0                       # What read queue length does an incoming req see
system.mem_ctrls1.rdQLenPdf::6                      0                       # What read queue length does an incoming req see
system.mem_ctrls1.rdQLenPdf::7                      0                       # What read queue length does an incoming req see
system.mem_ctrls1.rdQLenPdf::8                      0                       # What read queue length does an incoming req see
system.mem_ctrls1.rdQLenPdf::9                      0                       # What read queue length does an incoming req see
system.mem_ctrls1.rdQLenPdf::10                     0                       # What read queue length does an incoming req see
system.mem_ctrls1.rdQLenPdf::11                     0                       # What read queue length does an incoming req see
system.mem_ctrls1.rdQLenPdf::12                     0                       # What read queue length does an incoming req see
system.mem_ctrls1.rdQLenPdf::13                     0                       # What read queue length does an incoming req see
system.mem_ctrls1.rdQLenPdf::14                     0                       # What read queue length does an incoming req see
system.mem_ctrls1.rdQLenPdf::15                     0                       # What read queue length does an incoming req see
system.mem_ctrls1.rdQLenPdf::16                     0                       # What read queue length does an incoming req see
system.mem_ctrls1.rdQLenPdf::17                     0                       # What read queue length does an incoming req see
system.mem_ctrls1.rdQLenPdf::18                     0                       # What read queue length does an incoming req see
system.mem_ctrls1.rdQLenPdf::19                     0                       # What read queue length does an incoming req see
system.mem_ctrls1.rdQLenPdf::20                     0                       # What read queue length does an incoming req see
system.mem_ctrls1.rdQLenPdf::21                     0                       # What read queue length does an incoming req see
system.mem_ctrls1.rdQLenPdf::22                     0                       # What read queue length does an incoming req see
system.mem_ctrls1.rdQLenPdf::23                     0                       # What read queue length does an incoming req see
system.mem_ctrls1.rdQLenPdf::24                     0                       # What read queue length does an incoming req see
system.mem_ctrls1.rdQLenPdf::25                     0                       # What read queue length does an incoming req see
system.mem_ctrls1.rdQLenPdf::26                     0                       # What read queue length does an incoming req see
system.mem_ctrls1.rdQLenPdf::27                     0                       # What read queue length does an incoming req see
system.mem_ctrls1.rdQLenPdf::28                     0                       # What read queue length does an incoming req see
system.mem_ctrls1.rdQLenPdf::29                     0                       # What read queue length does an incoming req see
system.mem_ctrls1.rdQLenPdf::30                     0                       # What read queue length does an incoming req see
system.mem_ctrls1.rdQLenPdf::31                     0                       # What read queue length does an incoming req see
system.mem_ctrls1.wrQLenPdf::0                      2                       # What write queue length does an incoming req see
system.mem_ctrls1.wrQLenPdf::1                      2                       # What write queue length does an incoming req see
system.mem_ctrls1.wrQLenPdf::2                      2                       # What write queue length does an incoming req see
system.mem_ctrls1.wrQLenPdf::3                      2                       # What write queue length does an incoming req see
system.mem_ctrls1.wrQLenPdf::4                      2                       # What write queue length does an incoming req see
system.mem_ctrls1.wrQLenPdf::5                      2                       # What write queue length does an incoming req see
system.mem_ctrls1.wrQLenPdf::6                      2                       # What write queue length does an incoming req see
system.mem_ctrls1.wrQLenPdf::7                      2                       # What write queue length does an incoming req see
system.mem_ctrls1.wrQLenPdf::8                      2                       # What write queue length does an incoming req see
system.mem_ctrls1.wrQLenPdf::9                      2                       # What write queue length does an incoming req see
system.mem_ctrls1.wrQLenPdf::10                     2                       # What write queue length does an incoming req see
system.mem_ctrls1.wrQLenPdf::11                     2                       # What write queue length does an incoming req see
system.mem_ctrls1.wrQLenPdf::12                     2                       # What write queue length does an incoming req see
system.mem_ctrls1.wrQLenPdf::13                     2                       # What write queue length does an incoming req see
system.mem_ctrls1.wrQLenPdf::14                     2                       # What write queue length does an incoming req see
system.mem_ctrls1.wrQLenPdf::15                  3838                       # What write queue length does an incoming req see
system.mem_ctrls1.wrQLenPdf::16                  3890                       # What write queue length does an incoming req see
system.mem_ctrls1.wrQLenPdf::17                  4778                       # What write queue length does an incoming req see
system.mem_ctrls1.wrQLenPdf::18                  4847                       # What write queue length does an incoming req see
system.mem_ctrls1.wrQLenPdf::19                  4860                       # What write queue length does an incoming req see
system.mem_ctrls1.wrQLenPdf::20                  4859                       # What write queue length does an incoming req see
system.mem_ctrls1.wrQLenPdf::21                  4865                       # What write queue length does an incoming req see
system.mem_ctrls1.wrQLenPdf::22                  4846                       # What write queue length does an incoming req see
system.mem_ctrls1.wrQLenPdf::23                  4848                       # What write queue length does an incoming req see
system.mem_ctrls1.wrQLenPdf::24                  4858                       # What write queue length does an incoming req see
system.mem_ctrls1.wrQLenPdf::25                  4854                       # What write queue length does an incoming req see
system.mem_ctrls1.wrQLenPdf::26                  4852                       # What write queue length does an incoming req see
system.mem_ctrls1.wrQLenPdf::27                  4855                       # What write queue length does an incoming req see
system.mem_ctrls1.wrQLenPdf::28                  4865                       # What write queue length does an incoming req see
system.mem_ctrls1.wrQLenPdf::29                  4895                       # What write queue length does an incoming req see
system.mem_ctrls1.wrQLenPdf::30                  4848                       # What write queue length does an incoming req see
system.mem_ctrls1.wrQLenPdf::31                  4829                       # What write queue length does an incoming req see
system.mem_ctrls1.wrQLenPdf::32                  4828                       # What write queue length does an incoming req see
system.mem_ctrls1.wrQLenPdf::33                   101                       # What write queue length does an incoming req see
system.mem_ctrls1.wrQLenPdf::34                    29                       # What write queue length does an incoming req see
system.mem_ctrls1.wrQLenPdf::35                     9                       # What write queue length does an incoming req see
system.mem_ctrls1.wrQLenPdf::36                     7                       # What write queue length does an incoming req see
system.mem_ctrls1.wrQLenPdf::37                     5                       # What write queue length does an incoming req see
system.mem_ctrls1.wrQLenPdf::38                     1                       # What write queue length does an incoming req see
system.mem_ctrls1.wrQLenPdf::39                     0                       # What write queue length does an incoming req see
system.mem_ctrls1.wrQLenPdf::40                     0                       # What write queue length does an incoming req see
system.mem_ctrls1.wrQLenPdf::41                     0                       # What write queue length does an incoming req see
system.mem_ctrls1.wrQLenPdf::42                     0                       # What write queue length does an incoming req see
system.mem_ctrls1.wrQLenPdf::43                     0                       # What write queue length does an incoming req see
system.mem_ctrls1.wrQLenPdf::44                     0                       # What write queue length does an incoming req see
system.mem_ctrls1.wrQLenPdf::45                     0                       # What write queue length does an incoming req see
system.mem_ctrls1.wrQLenPdf::46                     0                       # What write queue length does an incoming req see
system.mem_ctrls1.wrQLenPdf::47                     0                       # What write queue length does an incoming req see
system.mem_ctrls1.wrQLenPdf::48                     0                       # What write queue length does an incoming req see
system.mem_ctrls1.wrQLenPdf::49                     0                       # What write queue length does an incoming req see
system.mem_ctrls1.wrQLenPdf::50                     0                       # What write queue length does an incoming req see
system.mem_ctrls1.wrQLenPdf::51                     0                       # What write queue length does an incoming req see
system.mem_ctrls1.wrQLenPdf::52                     0                       # What write queue length does an incoming req see
system.mem_ctrls1.wrQLenPdf::53                     0                       # What write queue length does an incoming req see
system.mem_ctrls1.wrQLenPdf::54                     0                       # What write queue length does an incoming req see
system.mem_ctrls1.wrQLenPdf::55                     0                       # What write queue length does an incoming req see
system.mem_ctrls1.wrQLenPdf::56                     0                       # What write queue length does an incoming req see
system.mem_ctrls1.wrQLenPdf::57                     0                       # What write queue length does an incoming req see
system.mem_ctrls1.wrQLenPdf::58                     0                       # What write queue length does an incoming req see
system.mem_ctrls1.wrQLenPdf::59                     0                       # What write queue length does an incoming req see
system.mem_ctrls1.wrQLenPdf::60                     0                       # What write queue length does an incoming req see
system.mem_ctrls1.wrQLenPdf::61                     0                       # What write queue length does an incoming req see
system.mem_ctrls1.wrQLenPdf::62                     0                       # What write queue length does an incoming req see
system.mem_ctrls1.wrQLenPdf::63                     0                       # What write queue length does an incoming req see
system.mem_ctrls1.bytesPerActivate::samples       203191                       # Bytes accessed per row activation
system.mem_ctrls1.bytesPerActivate::mean    72.566994                       # Bytes accessed per row activation
system.mem_ctrls1.bytesPerActivate::gmean    68.180283                       # Bytes accessed per row activation
system.mem_ctrls1.bytesPerActivate::stdev    54.747842                       # Bytes accessed per row activation
system.mem_ctrls1.bytesPerActivate::0-127       188739     92.89%     92.89% # Bytes accessed per row activation
system.mem_ctrls1.bytesPerActivate::128-255        12739      6.27%     99.16% # Bytes accessed per row activation
system.mem_ctrls1.bytesPerActivate::256-383          674      0.33%     99.49% # Bytes accessed per row activation
system.mem_ctrls1.bytesPerActivate::384-511          249      0.12%     99.61% # Bytes accessed per row activation
system.mem_ctrls1.bytesPerActivate::512-639          164      0.08%     99.69% # Bytes accessed per row activation
system.mem_ctrls1.bytesPerActivate::640-767          128      0.06%     99.75% # Bytes accessed per row activation
system.mem_ctrls1.bytesPerActivate::768-895           92      0.05%     99.80% # Bytes accessed per row activation
system.mem_ctrls1.bytesPerActivate::896-1023           72      0.04%     99.84% # Bytes accessed per row activation
system.mem_ctrls1.bytesPerActivate::1024-1151          334      0.16%    100.00% # Bytes accessed per row activation
system.mem_ctrls1.bytesPerActivate::total       203191                       # Bytes accessed per row activation
system.mem_ctrls1.rdPerTurnAround::samples         4829                       # Reads before turning the bus around for writes
system.mem_ctrls1.rdPerTurnAround::mean     30.009940                       # Reads before turning the bus around for writes
system.mem_ctrls1.rdPerTurnAround::stdev   376.120107                       # Reads before turning the bus around for writes
system.mem_ctrls1.rdPerTurnAround::0-1023         4828     99.98%     99.98% # Reads before turning the bus around for writes
system.mem_ctrls1.rdPerTurnAround::25600-26623            1      0.02%    100.00% # Reads before turning the bus around for writes
system.mem_ctrls1.rdPerTurnAround::total         4829                       # Reads before turning the bus around for writes
system.mem_ctrls1.wrPerTurnAround::samples         4829                       # Writes before turning the bus around for reads
system.mem_ctrls1.wrPerTurnAround::mean     17.700973                       # Writes before turning the bus around for reads
system.mem_ctrls1.wrPerTurnAround::gmean    17.674276                       # Writes before turning the bus around for reads
system.mem_ctrls1.wrPerTurnAround::stdev     0.969951                       # Writes before turning the bus around for reads
system.mem_ctrls1.wrPerTurnAround::16             967     20.02%     20.02% # Writes before turning the bus around for reads
system.mem_ctrls1.wrPerTurnAround::17              18      0.37%     20.40% # Writes before turning the bus around for reads
system.mem_ctrls1.wrPerTurnAround::18            3475     71.96%     92.36% # Writes before turning the bus around for reads
system.mem_ctrls1.wrPerTurnAround::19             295      6.11%     98.47% # Writes before turning the bus around for reads
system.mem_ctrls1.wrPerTurnAround::20              46      0.95%     99.42% # Writes before turning the bus around for reads
system.mem_ctrls1.wrPerTurnAround::21              14      0.29%     99.71% # Writes before turning the bus around for reads
system.mem_ctrls1.wrPerTurnAround::22               4      0.08%     99.79% # Writes before turning the bus around for reads
system.mem_ctrls1.wrPerTurnAround::23               4      0.08%     99.88% # Writes before turning the bus around for reads
system.mem_ctrls1.wrPerTurnAround::24               3      0.06%     99.94% # Writes before turning the bus around for reads
system.mem_ctrls1.wrPerTurnAround::25               1      0.02%     99.96% # Writes before turning the bus around for reads
system.mem_ctrls1.wrPerTurnAround::27               2      0.04%    100.00% # Writes before turning the bus around for reads
system.mem_ctrls1.wrPerTurnAround::total         4829                       # Writes before turning the bus around for reads
system.mem_ctrls1.totQLat                 27081692208                       # Total ticks spent queuing
system.mem_ctrls1.totMemAccLat            29798904708                       # Total ticks spent from burst creation until serviced by the DRAM
system.mem_ctrls1.totBusLat                 724590000                       # Total ticks spent in databus transfers
system.mem_ctrls1.avgQLat                   186875.97                       # Average queueing delay per DRAM burst
system.mem_ctrls1.avgBusLat                   5000.00                       # Average bus latency per DRAM burst
system.mem_ctrls1.avgMemAccLat              205625.97                       # Average memory access latency per DRAM burst
system.mem_ctrls1.avgRdBW                        8.49                       # Average DRAM read bandwidth in MiByte/s
system.mem_ctrls1.avgWrBW                        5.01                       # Average achieved write bandwidth in MiByte/s
system.mem_ctrls1.avgRdBWSys                     8.49                       # Average system read bandwidth in MiByte/s
system.mem_ctrls1.avgWrBWSys                     5.01                       # Average system write bandwidth in MiByte/s
system.mem_ctrls1.peakBW                     12800.00                       # Theoretical peak bandwidth in MiByte/s
system.mem_ctrls1.busUtil                        0.11                       # Data bus utilization in percentage
system.mem_ctrls1.busUtilRead                    0.07                       # Data bus utilization in percentage for reads
system.mem_ctrls1.busUtilWrite                   0.04                       # Data bus utilization in percentage for writes
system.mem_ctrls1.avgRdQLen                      1.00                       # Average read queue length when enqueuing
system.mem_ctrls1.avgWrQLen                     20.84                       # Average write queue length when enqueuing
system.mem_ctrls1.readRowHits                   18510                       # Number of row buffer hits during reads
system.mem_ctrls1.writeRowHits                   8689                       # Number of row buffer hits during writes
system.mem_ctrls1.readRowHitRate                12.77                       # Row buffer hit rate for reads
system.mem_ctrls1.writeRowHitRate               10.16                       # Row buffer hit rate for writes
system.mem_ctrls1.avgGap                   4740689.05                       # Average gap between requests
system.mem_ctrls1.pageHitRate                   11.80                       # Row buffer hit rate, read and write combined
system.mem_ctrls1_0.actEnergy               726537840                       # Energy for activate commands per rank (pJ)
system.mem_ctrls1_0.preEnergy               386156430                       # Energy for precharge commands per rank (pJ)
system.mem_ctrls1_0.readEnergy              519477840                       # Energy for read commands per rank (pJ)
system.mem_ctrls1_0.writeEnergy             222721740                       # Energy for write commands per rank (pJ)
system.mem_ctrls1_0.refreshEnergy        56698696080.000015                       # Energy for refresh commands per rank (pJ)
system.mem_ctrls1_0.actBackEnergy         19241768160                       # Energy for active background per rank (pJ)
system.mem_ctrls1_0.preBackEnergy          3316240320                       # Energy for precharge background per rank (pJ)
system.mem_ctrls1_0.actPowerDownEnergy   112279785030                       # Energy for active power-down per rank (pJ)
system.mem_ctrls1_0.prePowerDownEnergy    94439547840                       # Energy for precharge power-down per rank (pJ)
system.mem_ctrls1_0.selfRefreshEnergy    145246010865                       # Energy for self refresh per rank (pJ)
system.mem_ctrls1_0.totalEnergy          433105184385                       # Total energy per rank (pJ)
system.mem_ctrls1_0.averagePower           396.422392                       # Core power per rank (mW)
system.mem_ctrls1_0.totalIdleTime        1041639114273                       # Total Idle time Per DRAM Rank
system.mem_ctrls1_0.memoryStateTime::IDLE   6650110971                       # Time in different power states
system.mem_ctrls1_0.memoryStateTime::REF  24131790000                       # Time in different power states
system.mem_ctrls1_0.memoryStateTime::SREF 549475012554                       # Time in different power states
system.mem_ctrls1_0.memoryStateTime::PRE_PDN 245936411718                       # Time in different power states
system.mem_ctrls1_0.memoryStateTime::ACT  20113591188                       # Time in different power states
system.mem_ctrls1_0.memoryStateTime::ACT_PDN 246227690001                       # Time in different power states
system.mem_ctrls1_1.actEnergy               724288740                       # Energy for activate commands per rank (pJ)
system.mem_ctrls1_1.preEnergy               384953415                       # Energy for precharge commands per rank (pJ)
system.mem_ctrls1_1.readEnergy              515236680                       # Energy for read commands per rank (pJ)
system.mem_ctrls1_1.writeEnergy             223473420                       # Energy for write commands per rank (pJ)
system.mem_ctrls1_1.refreshEnergy        56536431120.000015                       # Energy for refresh commands per rank (pJ)
system.mem_ctrls1_1.actBackEnergy         19138546860                       # Energy for active background per rank (pJ)
system.mem_ctrls1_1.preBackEnergy          3313306560                       # Energy for precharge background per rank (pJ)
system.mem_ctrls1_1.actPowerDownEnergy   111658778580                       # Energy for active power-down per rank (pJ)
system.mem_ctrls1_1.prePowerDownEnergy    94398220800                       # Energy for precharge power-down per rank (pJ)
system.mem_ctrls1_1.selfRefreshEnergy    145627609320                       # Energy for self refresh per rank (pJ)
system.mem_ctrls1_1.totalEnergy          432547230645                       # Total energy per rank (pJ)
system.mem_ctrls1_1.averagePower           395.911694                       # Core power per rank (mW)
system.mem_ctrls1_1.totalIdleTime        1041877070423                       # Total Idle time Per DRAM Rank
system.mem_ctrls1_1.memoryStateTime::IDLE   6642837368                       # Time in different power states
system.mem_ctrls1_1.memoryStateTime::REF  24062958000                       # Time in different power states
system.mem_ctrls1_1.memoryStateTime::SREF 551182570554                       # Time in different power states
system.mem_ctrls1_1.memoryStateTime::PRE_PDN 245828687988                       # Time in different power states
system.mem_ctrls1_1.memoryStateTime::ACT  19951740641                       # Time in different power states
system.mem_ctrls1_1.memoryStateTime::ACT_PDN 244865811881                       # Time in different power states
system.pwrStateResidencyTicks::UNDEFINED 18745875997362                       # Cumulative time (in ticks) in various power states
system.cpu.branchPred.lookups                       3                       # Number of BP lookups
system.cpu.branchPred.condPredicted                 1                       # Number of conditional branches predicted
system.cpu.branchPred.condIncorrect                 1                       # Number of conditional branches incorrect
system.cpu.branchPred.BTBLookups                    2                       # Number of BTB lookups
system.cpu.branchPred.BTBHits                       0                       # Number of BTB hits
system.cpu.branchPred.BTBCorrect                    0                       # Number of correct BTB predictions (this stat may not work properly.
system.cpu.branchPred.BTBHitPct              0.000000                       # BTB Hit Percentage
system.cpu.branchPred.usedRAS                       0                       # Number of times the RAS was used to get a target.
system.cpu.branchPred.RASInCorrect                  0                       # Number of incorrect RAS predictions.
system.cpu.branchPred.indirectLookups               0                       # Number of indirect predictor lookups.
system.cpu.branchPred.indirectHits                  0                       # Number of indirect target hits.
system.cpu.branchPred.indirectMisses                0                       # Number of indirect misses.
system.cpu.branchPredindirectMispredicted            0                       # Number of mispredicted indirect branches.
system.cpu_voltage_domain.voltage                   1                       # Voltage in Volts
system.cpu_clk_domain.clock                       333                       # Clock period in ticks
system.cpu.dtb.fetch_hits                           0                       # ITB hits
system.cpu.dtb.fetch_misses                         0                       # ITB misses
system.cpu.dtb.fetch_acv                            0                       # ITB acv
system.cpu.dtb.fetch_accesses                       0                       # ITB accesses
system.cpu.dtb.read_hits                            3                       # DTB read hits
system.cpu.dtb.read_misses                          0                       # DTB read misses
system.cpu.dtb.read_acv                             0                       # DTB read access violations
system.cpu.dtb.read_accesses                        3                       # DTB read accesses
system.cpu.dtb.write_hits                          11                       # DTB write hits
system.cpu.dtb.write_misses                         0                       # DTB write misses
system.cpu.dtb.write_acv                            0                       # DTB write access violations
system.cpu.dtb.write_accesses                      11                       # DTB write accesses
system.cpu.dtb.data_hits                           14                       # DTB hits
system.cpu.dtb.data_misses                          0                       # DTB misses
system.cpu.dtb.data_acv                             0                       # DTB access violations
system.cpu.dtb.data_accesses                       14                       # DTB accesses
system.cpu.itb.fetch_hits                           6                       # ITB hits
system.cpu.itb.fetch_misses                         0                       # ITB misses
system.cpu.itb.fetch_acv                            0                       # ITB acv
system.cpu.itb.fetch_accesses                       6                       # ITB accesses
system.cpu.itb.read_hits                            0                       # DTB read hits
system.cpu.itb.read_misses                          0                       # DTB read misses
system.cpu.itb.read_acv                             0                       # DTB read access violations
system.cpu.itb.read_accesses                        0                       # DTB read accesses
system.cpu.itb.write_hits                           0                       # DTB write hits
system.cpu.itb.write_misses                         0                       # DTB write misses
system.cpu.itb.write_acv                            0                       # DTB write access violations
system.cpu.itb.write_accesses                       0                       # DTB write accesses
system.cpu.itb.data_hits                            0                       # DTB hits
system.cpu.itb.data_misses                          0                       # DTB misses
system.cpu.itb.data_acv                             0                       # DTB access violations
system.cpu.itb.data_accesses                        0                       # DTB accesses
system.cpu.workload.num_syscalls                    0                       # Number of system calls
system.cpu.pwrStateResidencyTicks::ON    1092534606432                       # Cumulative time (in ticks) in various power states
system.cpu.numCycles                              884                       # number of cpu cycles simulated
system.cpu.numWorkItemsStarted                      0                       # number of work items this cpu started
system.cpu.numWorkItemsCompleted                    0                       # number of work items this cpu completed
system.cpu.fetch.icacheStallCycles                 63                       # Number of cycles fetch is stalled on an Icache miss
system.cpu.fetch.Insts                             31                       # Number of instructions fetch has processed
system.cpu.fetch.Branches                           3                       # Number of branches that fetch encountered
system.cpu.fetch.Cycles                             5                       # Number of cycles fetch has run and was not squashing or blocked
system.cpu.fetch.SquashCycles                       5                       # Number of cycles fetch has spent squashing
system.cpu.fetch.PendingDrainCycles                 8                       # Number of cycles fetch has spent waiting on pipes to drain
system.cpu.fetch.CacheLines                         6                       # Number of cache lines fetched
system.cpu.fetch.IcacheSquashes                     3                       # Number of outstanding Icache misses that were squashed
system.cpu.fetch.rateDist::samples                 78                       # Number of instructions fetched each cycle (Total)
system.cpu.fetch.rateDist::mean              0.397436                       # Number of instructions fetched each cycle (Total)
system.cpu.fetch.rateDist::stdev             1.646245                       # Number of instructions fetched each cycle (Total)
system.cpu.fetch.rateDist::underflows               0      0.00%      0.00% # Number of instructions fetched each cycle (Total)
system.cpu.fetch.rateDist::0                       73     93.59%     93.59% # Number of instructions fetched each cycle (Total)
system.cpu.fetch.rateDist::1                        0      0.00%     93.59% # Number of instructions fetched each cycle (Total)
system.cpu.fetch.rateDist::2                        1      1.28%     94.87% # Number of instructions fetched each cycle (Total)
system.cpu.fetch.rateDist::3                        0      0.00%     94.87% # Number of instructions fetched each cycle (Total)
system.cpu.fetch.rateDist::4                        0      0.00%     94.87% # Number of instructions fetched each cycle (Total)
[...]
system.switch_cpus_1.iq.int_inst_queue_writes    350663555                       # Number of integer instruction queue writes
system.switch_cpus_1.iq.int_inst_queue_wakeup_accesses    240905506                       # Number of integer instruction queue wakeup accesses
system.switch_cpus_1.iq.fp_inst_queue_reads      4182985                       # Number of floating instruction queue reads
system.switch_cpus_1.iq.fp_inst_queue_writes      2880606                       # Number of floating instruction queue writes
system.switch_cpus_1.iq.fp_inst_queue_wakeup_accesses      1990978                       # Number of floating instruction queue wakeup accesses
system.switch_cpus_1.iq.int_alu_accesses    258564833                       # Number of integer alu accesses
system.switch_cpus_1.iq.fp_alu_accesses       2117872                       # Number of floating point alu accesses
system.switch_cpus_1.iew.lsq.thread0.forwLoads      2612654                       # Number of loads that had data forwarded from stores
system.switch_cpus_1.iew.lsq.thread0.invAddrLoads            0                       # Number of loads ignored due to an invalid address
system.switch_cpus_1.iew.lsq.thread0.squashedLoads     18020547                       # Number of loads squashed
system.switch_cpus_1.iew.lsq.thread0.ignoredResponses        31412                       # Number of memory responses ignored because the instruction is squashed
system.switch_cpus_1.iew.lsq.thread0.memOrderViolation        34125                       # Number of memory ordering violations
system.switch_cpus_1.iew.lsq.thread0.squashedStores      5657273                       # Number of stores squashed
system.switch_cpus_1.iew.lsq.thread0.invAddrSwpfs            0                       # Number of software prefetches ignored due to an invalid address
system.switch_cpus_1.iew.lsq.thread0.blockedLoads            0                       # Number of blocked loads due to partial load-store forwarding
system.switch_cpus_1.iew.lsq.thread0.rescheduledLoads         9540                       # Number of loads that were rescheduled
system.switch_cpus_1.iew.lsq.thread0.cacheBlocked      1575158                       # Number of times an access to memory failed due to the cache being blocked
system.switch_cpus_1.iew.iewIdleCycles              0                       # Number of cycles IEW is idle
system.switch_cpus_1.iew.iewSquashCycles      3775472                       # Number of cycles IEW is squashing
system.switch_cpus_1.iew.iewBlockCycles      10041080                       # Number of cycles IEW is blocking
system.switch_cpus_1.iew.iewUnblockCycles      1646168                       # Number of cycles IEW is unblocking
system.switch_cpus_1.iew.iewDispatchedInsts    283595887                       # Number of instructions dispatched to IQ
system.switch_cpus_1.iew.iewDispSquashedInsts      1389503                       # Number of squashed instructions skipped by dispatch
system.switch_cpus_1.iew.iewDispLoadInsts     62142301                       # Number of dispatched load instructions
system.switch_cpus_1.iew.iewDispStoreInsts     27957118                       # Number of dispatched store instructions
system.switch_cpus_1.iew.iewDispNonSpecInsts          177                       # Number of dispatched non-speculative instructions
system.switch_cpus_1.iew.iewIQFullEvents        23712                       # Number of times the IQ has become full, causing a stall
system.switch_cpus_1.iew.iewLSQFullEvents      1577927                       # Number of times the LSQ has become full, causing a stall
system.switch_cpus_1.iew.memOrderViolationEvents        34125                       # Number of memory order violations
system.switch_cpus_1.iew.predictedTakenIncorrect      2203681                       # Number of branches that were predicted taken incorrectly
system.switch_cpus_1.iew.predictedNotTakenIncorrect      1991536                       # Number of branches that were predicted not taken incorrectly
system.switch_cpus_1.iew.branchMispredicts      4195217                       # Number of branch mispredicts detected at execute
system.switch_cpus_1.iew.iewExecutedInsts    249061682                       # Number of executed instructions
system.switch_cpus_1.iew.iewExecLoadInsts     57951997                       # Number of load instructions executed
system.switch_cpus_1.iew.iewExecSquashedInsts      6222414                       # Number of squashed instructions skipped in execute
system.switch_cpus_1.iew.exec_swp                   0                       # number of swp insts executed
system.switch_cpus_1.iew.exec_nop             6839496                       # number of nop insts executed
system.switch_cpus_1.iew.exec_refs           83166214                       # number of memory reference insts executed
system.switch_cpus_1.iew.exec_branches       36326394                       # Number of branches executed
system.switch_cpus_1.iew.exec_stores         25214217                       # Number of stores executed
system.switch_cpus_1.iew.exec_rate           1.491669                       # Inst execution rate
system.switch_cpus_1.iew.wb_sent            244535003                       # cumulative count of insts sent to commit
system.switch_cpus_1.iew.wb_count           242896484                       # cumulative count of insts written-back
system.switch_cpus_1.iew.wb_producers       136958746                       # num instructions producing a value
system.switch_cpus_1.iew.wb_consumers       173320594                       # num instructions consuming a value
system.switch_cpus_1.iew.wb_rate             1.454745                       # insts written-back per cycle
system.switch_cpus_1.iew.wb_fanout           0.790205                       # average fanout of values written-back
system.switch_cpus_1.commit.commitSquashedInsts     77263568                       # The number of squashed insts skipped by commit
system.switch_cpus_1.commit.commitNonSpecStalls          176                       # The number of times commit has been forced to stall to communicate backwards
system.switch_cpus_1.commit.branchMispredicts      3682515                       # The number of times a branch was mispredicted
system.switch_cpus_1.commit.committed_per_cycle::samples    149744124                       # Number of insts commited each cycle
system.switch_cpus_1.commit.committed_per_cycle::mean     1.371360                       # Number of insts commited each cycle
system.switch_cpus_1.commit.committed_per_cycle::stdev     2.404302                       # Number of insts commited each cycle
system.switch_cpus_1.commit.committed_per_cycle::underflows            0      0.00%      0.00% # Number of insts commited each cycle
system.switch_cpus_1.commit.committed_per_cycle::0     88551594     59.14%     59.14% # Number of insts commited each cycle
system.switch_cpus_1.commit.committed_per_cycle::1     25355632     16.93%     76.07% # Number of insts commited each cycle
system.switch_cpus_1.commit.committed_per_cycle::2      8742530      5.84%     81.91% # Number of insts commited each cycle
system.switch_cpus_1.commit.committed_per_cycle::3      5227899      3.49%     85.40% # Number of insts commited each cycle
system.switch_cpus_1.commit.committed_per_cycle::4      3414666      2.28%     87.68% # Number of insts commited each cycle
system.switch_cpus_1.commit.committed_per_cycle::5      2726492      1.82%     89.50% # Number of insts commited each cycle
system.switch_cpus_1.commit.committed_per_cycle::6      2306812      1.54%     91.04% # Number of insts commited each cycle
system.switch_cpus_1.commit.committed_per_cycle::7      1651270      1.10%     92.14% # Number of insts commited each cycle
system.switch_cpus_1.commit.committed_per_cycle::8     11767229      7.86%    100.00% # Number of insts commited each cycle
system.switch_cpus_1.commit.committed_per_cycle::overflows            0      0.00%    100.00% # Number of insts commited each cycle
system.switch_cpus_1.commit.committed_per_cycle::min_value            0                       # Number of insts commited each cycle
system.switch_cpus_1.commit.committed_per_cycle::max_value            8                       # Number of insts commited each cycle
system.switch_cpus_1.commit.committed_per_cycle::total    149744124                       # Number of insts commited each cycle
system.switch_cpus_1.commit.committedInsts    205353107                       # Number of instructions committed
system.switch_cpus_1.commit.committedOps    205353107                       # Number of ops (including micro ops) committed
system.switch_cpus_1.commit.swp_count               0                       # Number of s/w prefetches committed
system.switch_cpus_1.commit.refs             66421579                       # Number of memory references committed
system.switch_cpus_1.commit.loads            44121734                       # Number of loads committed
system.switch_cpus_1.commit.membars                88                       # Number of memory barriers committed
system.switch_cpus_1.commit.branches         30359423                       # Number of branches committed
system.switch_cpus_1.commit.fp_insts          1786208                       # Number of committed floating point instructions.
system.switch_cpus_1.commit.int_insts       197426184                       # Number of committed integer instructions.
system.switch_cpus_1.commit.function_calls      1752736                       # Number of function calls committed.
system.switch_cpus_1.commit.op_class_0::No_OpClass      5447375      2.65%      2.65% # Class of committed instruction
system.switch_cpus_1.commit.op_class_0::IntAlu    132113930     64.34%     66.99% # Class of committed instruction
system.switch_cpus_1.commit.op_class_0::IntMult        79596      0.04%     67.03% # Class of committed instruction
system.switch_cpus_1.commit.op_class_0::IntDiv            0      0.00%     67.03% # Class of committed instruction
system.switch_cpus_1.commit.op_class_0::FloatAdd       635244      0.31%     67.34% # Class of committed instruction
system.switch_cpus_1.commit.op_class_0::FloatCmp       335099      0.16%     67.50% # Class of committed instruction
system.switch_cpus_1.commit.op_class_0::FloatCvt       272825      0.13%     67.63% # Class of committed instruction
system.switch_cpus_1.commit.op_class_0::FloatMult            0      0.00%     67.63% # Class of committed instruction
system.switch_cpus_1.commit.op_class_0::FloatMultAcc            0      0.00%     67.63% # Class of committed instruction
system.switch_cpus_1.commit.op_class_0::FloatDiv        47371      0.02%     67.65% # Class of committed instruction
system.switch_cpus_1.commit.op_class_0::FloatMisc            0      0.00%     67.65% # Class of committed instruction
system.switch_cpus_1.commit.op_class_0::FloatSqrt            0      0.00%     67.65% # Class of committed instruction
system.switch_cpus_1.commit.op_class_0::SimdAdd            0      0.00%     67.65% # Class of committed instruction
system.switch_cpus_1.commit.op_class_0::SimdAddAcc            0      0.00%     67.65% # Class of committed instruction
system.switch_cpus_1.commit.op_class_0::SimdAlu            0      0.00%     67.65% # Class of committed instruction
system.switch_cpus_1.commit.op_class_0::SimdCmp            0      0.00%     67.65% # Class of committed instruction
system.switch_cpus_1.commit.op_class_0::SimdCvt            0      0.00%     67.65% # Class of committed instruction
system.switch_cpus_1.commit.op_class_0::SimdMisc            0      0.00%     67.65% # Class of committed instruction
system.switch_cpus_1.commit.op_class_0::SimdMult            0      0.00%     67.65% # Class of committed instruction
system.switch_cpus_1.commit.op_class_0::SimdMultAcc            0      0.00%     67.65% # Class of committed instruction
system.switch_cpus_1.commit.op_class_0::SimdShift            0      0.00%     67.65% # Class of committed instruction
system.switch_cpus_1.commit.op_class_0::SimdShiftAcc            0      0.00%     67.65% # Class of committed instruction
system.switch_cpus_1.commit.op_class_0::SimdSqrt            0      0.00%     67.65% # Class of committed instruction
system.switch_cpus_1.commit.op_class_0::SimdFloatAdd            0      0.00%     67.65% # Class of committed instruction
system.switch_cpus_1.commit.op_class_0::SimdFloatAlu            0      0.00%     67.65% # Class of committed instruction
system.switch_cpus_1.commit.op_class_0::SimdFloatCmp            0      0.00%     67.65% # Class of committed instruction
system.switch_cpus_1.commit.op_class_0::SimdFloatCvt            0      0.00%     67.65% # Class of committed instruction
system.switch_cpus_1.commit.op_class_0::SimdFloatDiv            0      0.00%     67.65% # Class of committed instruction
system.switch_cpus_1.commit.op_class_0::SimdFloatMisc            0      0.00%     67.65% # Class of committed instruction
system.switch_cpus_1.commit.op_class_0::SimdFloatMult            0      0.00%     67.65% # Class of committed instruction
system.switch_cpus_1.commit.op_class_0::SimdFloatMultAcc            0      0.00%     67.65% # Class of committed instruction
system.switch_cpus_1.commit.op_class_0::SimdFloatSqrt            0      0.00%     67.65% # Class of committed instruction
system.switch_cpus_1.commit.op_class_0::MemRead     43815278     21.34%     88.99% # Class of committed instruction
system.switch_cpus_1.commit.op_class_0::MemWrite     22110720     10.77%     99.76% # Class of committed instruction
system.switch_cpus_1.commit.op_class_0::FloatMemRead       306544      0.15%     99.91% # Class of committed instruction
system.switch_cpus_1.commit.op_class_0::FloatMemWrite       189125      0.09%    100.00% # Class of committed instruction
system.switch_cpus_1.commit.op_class_0::IprAccess            0      0.00%    100.00% # Class of committed instruction
system.switch_cpus_1.commit.op_class_0::InstPrefetch            0      0.00%    100.00% # Class of committed instruction
system.switch_cpus_1.commit.op_class_0::total    205353107                       # Class of committed instruction
system.switch_cpus_1.commit.bw_lim_events     11767229                       # number cycles where commit BW limit reached
system.switch_cpus_1.rob.rob_reads          419703083                       # The number of ROB reads
system.switch_cpus_1.rob.rob_writes         577188130                       # The number of ROB writes
system.switch_cpus_1.timesIdled                836221                       # Number of times that the entire CPU went into an idle state and unscheduled itself
system.switch_cpus_1.idleCycles               5354608                       # Total number of cycles that the CPU has spent unscheduled due to idling
system.switch_cpus_1.committedInsts         200000006                       # Number of Instructions Simulated
system.switch_cpus_1.committedOps           200000006                       # Number of Ops (including micro ops) Simulated
system.switch_cpus_1.cpi                     0.834842                       # CPI: Cycles Per Instruction
system.switch_cpus_1.cpi_total               0.834842                       # CPI: Total CPI of All Threads
system.switch_cpus_1.ipc                     1.197831                       # IPC: Instructions Per Cycle
system.switch_cpus_1.ipc_total               1.197831                       # IPC: Total IPC of All Threads
system.switch_cpus_1.int_regfile_reads      334091536                       # number of integer regfile reads
system.switch_cpus_1.int_regfile_writes     183365126                       # number of integer regfile writes
system.switch_cpus_1.fp_regfile_reads         2121609                       # number of floating regfile reads
system.switch_cpus_1.fp_regfile_writes        1274161                       # number of floating regfile writes
system.switch_cpus_1.misc_regfile_reads         94472                       # number of misc regfile reads
system.switch_cpus_1.misc_regfile_writes        47313                       # number of misc regfile writes
system.tol3bus.snoop_filter.tot_requests      2928731                       # Total number of requests made to the snoop filter.
system.tol3bus.snoop_filter.hit_single_requests      1462327                       # Number of requests hitting in the snoop filter with a single holder of the requested data.
system.tol3bus.snoop_filter.hit_multi_requests            0                       # Number of requests hitting in the snoop filter with multiple (>1) holders of the requested data.
system.tol3bus.snoop_filter.tot_snoops           1202                       # Total number of snoops made to the snoop filter.
system.tol3bus.snoop_filter.hit_single_snoops         1202                       # Number of snoops hitting in the snoop filter with a single holder of the requested data.
system.tol3bus.snoop_filter.hit_multi_snoops            0                       # Number of snoops hitting in the snoop filter with multiple (>1) holders of the requested data.
system.tol3bus.pwrStateResidencyTicks::UNDEFINED 18745875997362                       # Cumulative time (in ticks) in various power states
system.tol3bus.trans_dist::ReadResp           1040563                       # Transaction distribution
system.tol3bus.trans_dist::WritebackDirty      1005018                       # Transaction distribution
system.tol3bus.trans_dist::CleanEvict          680680                       # Transaction distribution
system.tol3bus.trans_dist::ReadExReq           425841                       # Transaction distribution
system.tol3bus.trans_dist::ReadExResp          425841                       # Transaction distribution
system.tol3bus.trans_dist::ReadSharedReq      1040563                       # Transaction distribution
system.tol3bus.pkt_count_system.cpu.l2.mem_side::system.l3.cpu_side      4395135                       # Packet count per connected master and slave (bytes)
system.tol3bus.pkt_size_system.cpu.l2.mem_side::system.l3.cpu_side    147242240                       # Cumulative packet size per connected master and slave (bytes)
system.tol3bus.snoops                          223371                       # Total snoops (count)
system.tol3bus.snoopTraffic                  10928768                       # Total snoop traffic (bytes)
system.tol3bus.snoop_fanout::samples          1689775                       # Request fanout histogram
system.tol3bus.snoop_fanout::mean            0.000711                       # Request fanout histogram
system.tol3bus.snoop_fanout::stdev           0.026661                       # Request fanout histogram
system.tol3bus.snoop_fanout::underflows             0      0.00%      0.00% # Request fanout histogram
system.tol3bus.snoop_fanout::0                1688573     99.93%     99.93% # Request fanout histogram
system.tol3bus.snoop_fanout::1                   1202      0.07%    100.00% # Request fanout histogram
system.tol3bus.snoop_fanout::overflows              0      0.00%    100.00% # Request fanout histogram
system.tol3bus.snoop_fanout::min_value              0                       # Request fanout histogram
system.tol3bus.snoop_fanout::max_value              1                       # Request fanout histogram
system.tol3bus.snoop_fanout::total            1689775                       # Request fanout histogram
system.tol3bus.reqLayer0.occupancy         1253074671                       # Layer occupancy (ticks)
system.tol3bus.reqLayer0.utilization              0.1                       # Layer utilization (%)
system.tol3bus.respLayer0.occupancy         976625064                       # Layer occupancy (ticks)
system.tol3bus.respLayer0.utilization             0.1                       # Layer utilization (%)

---------- End Simulation Statistics   ----------
