
---------- Begin Simulation Statistics ----------
sim_seconds                                  1.241039                       # Number of seconds simulated
sim_ticks                                1241038659260                       # Number of ticks simulated
final_tick                               191292348574260                       # Number of ticks from beginning of simulation (restored from checkpoints and never reset)
sim_freq                                 1000000000000                       # Frequency of simulated ticks
host_inst_rate                                 411506                       # Simulator instruction rate (inst/s)
host_op_rate                                   411506                       # Simulator op (including micro ops) rate (op/s)
host_tick_rate                              425579536                       # Simulator tick rate (ticks/s)
host_mem_usage                                2538888                       # Number of bytes of host memory used
host_seconds                                  2916.11                       # Real time elapsed on the host
sim_insts                                  1200000007                       # Number of instructions simulated
sim_ops                                    1200000007                       # Number of ops (including micro ops) simulated
system.voltage_domain.voltage                       1                       # Voltage in Volts
system.clk_domain.clock                          1000                       # Clock period in ticks
system.mem_ctrls0.pwrStateResidencyTicks::UNDEFINED 191292348574260                       # Cumulative time (in ticks) in various power states
system.mem_ctrls0.bytes_read::cpu.inst            192                       # Number of bytes read from this memory
system.mem_ctrls0.bytes_read::cpu.data            192                       # Number of bytes read from this memory
system.mem_ctrls0.bytes_read::switch_cpus.inst        12992                       # Number of bytes read from this memory
system.mem_ctrls0.bytes_read::switch_cpus.data     19583104                       # Number of bytes read from this memory
system.mem_ctrls0.bytes_read::switch_cpus_1.inst          384                       # Number of bytes read from this memory
system.mem_ctrls0.bytes_read::switch_cpus_1.data      4106048                       # Number of bytes read from this memory
system.mem_ctrls0.bytes_read::total          23702912                       # Number of bytes read from this memory
system.mem_ctrls0.bytes_inst_read::cpu.inst          192                       # Number of instructions bytes read from this memory
system.mem_ctrls0.bytes_inst_read::switch_cpus.inst        12992                       # Number of instructions bytes read from this memory
system.mem_ctrls0.bytes_inst_read::switch_cpus_1.inst          384                       # Number of instructions bytes read from this memory
system.mem_ctrls0.bytes_inst_read::total        13568                       # Number of instructions bytes read from this memory
system.mem_ctrls0.bytes_written::writebacks     15756352                       # Number of bytes written to this memory
system.mem_ctrls0.bytes_written::total       15756352                       # Number of bytes written to this memory
system.mem_ctrls0.num_reads::cpu.inst               3                       # Number of read requests responded to by this memory
system.mem_ctrls0.num_reads::cpu.data               3                       # Number of read requests responded to by this memory
system.mem_ctrls0.num_reads::switch_cpus.inst          203                       # Number of read requests responded to by this memory
system.mem_ctrls0.num_reads::switch_cpus.data       305986                       # Number of read requests responded to by this memory
system.mem_ctrls0.num_reads::switch_cpus_1.inst            6                       # Number of read requests responded to by this memory
system.mem_ctrls0.num_reads::switch_cpus_1.data        64157                       # Number of read requests responded to by this memory
system.mem_ctrls0.num_reads::total             370358                       # Number of read requests responded to by this memory
system.mem_ctrls0.num_writes::writebacks       246193                       # Number of write requests responded to by this memory
system.mem_ctrls0.num_writes::total            246193                       # Number of write requests responded to by this memory
system.mem_ctrls0.bw_read::cpu.inst               155                       # Total read bandwidth from this memory (bytes/s)
system.mem_ctrls0.bw_read::cpu.data               155                       # Total read bandwidth from this memory (bytes/s)
system.mem_ctrls0.bw_read::switch_cpus.inst        10469                       # Total read bandwidth from this memory (bytes/s)
system.mem_ctrls0.bw_read::switch_cpus.data     15779608                       # Total read bandwidth from this memory (bytes/s)
system.mem_ctrls0.bw_read::switch_cpus_1.inst          309                       # Total read bandwidth from this memory (bytes/s)
system.mem_ctrls0.bw_read::switch_cpus_1.data      3308558                       # Total read bandwidth from this memory (bytes/s)
system.mem_ctrls0.bw_read::total             19099254                       # Total read bandwidth from this memory (bytes/s)
system.mem_ctrls0.bw_inst_read::cpu.inst          155                       # Instruction read bandwidth from this memory (bytes/s)
system.mem_ctrls0.bw_inst_read::switch_cpus.inst        10469                       # Instruction read bandwidth from this memory (bytes/s)
system.mem_ctrls0.bw_inst_read::switch_cpus_1.inst          309                       # Instruction read bandwidth from this memory (bytes/s)
system.mem_ctrls0.bw_inst_read::total           10933                       # Instruction read bandwidth from this memory (bytes/s)
system.mem_ctrls0.bw_write::writebacks       12696101                       # Write bandwidth from this memory (bytes/s)
system.mem_ctrls0.bw_write::total            12696101                       # Write bandwidth from this memory (bytes/s)
system.mem_ctrls0.bw_total::writebacks       12696101                       # Total bandwidth to/from this memory (bytes/s)
system.mem_ctrls0.bw_total::cpu.inst              155                       # Total bandwidth to/from this memory (bytes/s)
system.mem_ctrls0.bw_total::cpu.data              155                       # Total bandwidth to/from this memory (bytes/s)
system.mem_ctrls0.bw_total::switch_cpus.inst        10469                       # Total bandwidth to/from this memory (bytes/s)
system.mem_ctrls0.bw_total::switch_cpus.data     15779608                       # Total bandwidth to/from this memory (bytes/s)
system.mem_ctrls0.bw_total::switch_cpus_1.inst          309                       # Total bandwidth to/from this memory (bytes/s)
system.mem_ctrls0.bw_total::switch_cpus_1.data      3308558                       # Total bandwidth to/from this memory (bytes/s)
system.mem_ctrls0.bw_total::total            31795354                       # Total bandwidth to/from this memory (bytes/s)
system.mem_ctrls0.readReqs                     370358                       # Number of read requests accepted
system.mem_ctrls0.writeReqs                    246193                       # Number of write requests accepted
system.mem_ctrls0.readBursts                   370358                       # Number of DRAM read bursts, including those serviced by the write queue
system.mem_ctrls0.writeBursts                  246193                       # Number of DRAM write bursts, including those merged in the write queue
system.mem_ctrls0.bytesReadDRAM              23663040                       # Total number of bytes read from DRAM
system.mem_ctrls0.bytesReadWrQ                  39872                       # Total number of bytes read from write queue
system.mem_ctrls0.bytesWritten               15754752                       # Total number of bytes written to DRAM
system.mem_ctrls0.bytesReadSys               23702912                       # Total read bytes from the system interface side
system.mem_ctrls0.bytesWrittenSys            15756352                       # Total written bytes from the system interface side
system.mem_ctrls0.servicedByWrQ                   623                       # Number of DRAM read bursts serviced by the write queue
system.mem_ctrls0.mergedWrBursts                    0                       # Number of DRAM write bursts merged with an existing one
system.mem_ctrls0.neitherReadNorWriteReqs            0                       # Number of requests that are neither read nor write
system.mem_ctrls0.perBankRdBursts::0            24236                       # Per bank write bursts
system.mem_ctrls0.perBankRdBursts::1            23508                       # Per bank write bursts
system.mem_ctrls0.perBankRdBursts::2            24310                       # Per bank write bursts
system.mem_ctrls0.perBankRdBursts::3            23796                       # Per bank write bursts
system.mem_ctrls0.perBankRdBursts::4            21742                       # Per bank write bursts
system.mem_ctrls0.perBankRdBursts::5            22325                       # Per bank write bursts
system.mem_ctrls0.perBankRdBursts::6            22837                       # Per bank write bursts
system.mem_ctrls0.perBankRdBursts::7            23763                       # Per bank write bursts
system.mem_ctrls0.perBankRdBursts::8            24180                       # Per bank write bursts
system.mem_ctrls0.perBankRdBursts::9            22634                       # Per bank write bursts
system.mem_ctrls0.perBankRdBursts::10           23163                       # Per bank write bursts
system.mem_ctrls0.perBankRdBursts::11           22571                       # Per bank write bursts
system.mem_ctrls0.perBankRdBursts::12           21539                       # Per bank write bursts
system.mem_ctrls0.perBankRdBursts::13           22356                       # Per bank write bursts
system.mem_ctrls0.perBankRdBursts::14           22791                       # Per bank write bursts
system.mem_ctrls0.perBankRdBursts::15           23984                       # Per bank write bursts
system.mem_ctrls0.perBankWrBursts::0            16284                       # Per bank write bursts
system.mem_ctrls0.perBankWrBursts::1            15763                       # Per bank write bursts
system.mem_ctrls0.perBankWrBursts::2            16262                       # Per bank write bursts
system.mem_ctrls0.perBankWrBursts::3            15714                       # Per bank write bursts
system.mem_ctrls0.perBankWrBursts::4            14085                       # Per bank write bursts
system.mem_ctrls0.perBankWrBursts::5            14796                       # Per bank write bursts
system.mem_ctrls0.perBankWrBursts::6            15285                       # Per bank write bursts
system.mem_ctrls0.perBankWrBursts::7            15961                       # Per bank write bursts
system.mem_ctrls0.perBankWrBursts::8            16127                       # Per bank write bursts
system.mem_ctrls0.perBankWrBursts::9            15060                       # Per bank write bursts
system.mem_ctrls0.perBankWrBursts::10           15266                       # Per bank write bursts
system.mem_ctrls0.perBankWrBursts::11           14955                       # Per bank write bursts
system.mem_ctrls0.perBankWrBursts::12           14496                       # Per bank write bursts
system.mem_ctrls0.perBankWrBursts::13           14751                       # Per bank write bursts
system.mem_ctrls0.perBankWrBursts::14           15148                       # Per bank write bursts
system.mem_ctrls0.perBankWrBursts::15           16215                       # Per bank write bursts
system.mem_ctrls0.numRdRetry                        0                       # Number of times read queue was full causing retry
system.mem_ctrls0.numWrRetry                        0                       # Number of times write queue was full causing retry
system.mem_ctrls0.totGap                 1240777662984                       # Total gap between requests
system.mem_ctrls0.readPktSize::0                    0                       # Read request sizes (log2)
system.mem_ctrls0.readPktSize::1                    0                       # Read request sizes (log2)
system.mem_ctrls0.readPktSize::2                    0                       # Read request sizes (log2)
system.mem_ctrls0.readPktSize::3                    0                       # Read request sizes (log2)
system.mem_ctrls0.readPktSize::4                    0                       # Read request sizes (log2)
system.mem_ctrls0.readPktSize::5                    0                       # Read request sizes (log2)
system.mem_ctrls0.readPktSize::6               370358                       # Read request sizes (log2)
system.mem_ctrls0.writePktSize::0                   0                       # Write request sizes (log2)
system.mem_ctrls0.writePktSize::1                   0                       # Write request sizes (log2)
system.mem_ctrls0.writePktSize::2                   0                       # Write request sizes (log2)
system.mem_ctrls0.writePktSize::3                   0                       # Write request sizes (log2)
system.mem_ctrls0.writePktSize::4                   0                       # Write request sizes (log2)
system.mem_ctrls0.writePktSize::5                   0                       # Write request sizes (log2)
system.mem_ctrls0.writePktSize::6              246193                       # Write request sizes (log2)
system.mem_ctrls0.rdQLenPdf::0                 363464                       # What read queue length does an incoming req see
system.mem_ctrls0.rdQLenPdf::1                   6138                       # What read queue length does an incoming req see
system.mem_ctrls0.rdQLenPdf::2                    120                       # What read queue length does an incoming req see
system.mem_ctrls0.rdQLenPdf::3                     12                       # What read queue length does an incoming req see
system.mem_ctrls0.rdQLenPdf::4                      1                       # What read queue length does an incoming req see
system.mem_ctrls0.rdQLenPdf::5                      0                       # What read queue length does an incoming req see
system.mem_ctrls0.rdQLenPdf::6                      0                       # What read queue length does an incoming req see
system.mem_ctrls0.rdQLenPdf::7                      0                       # What read queue length does an incoming req see
system.mem_ctrls0.rdQLenPdf::8                      0                       # What read queue length does an incoming req see
system.mem_ctrls0.rdQLenPdf::9                      0                       # What read queue length does an incoming req see
system.mem_ctrls0.rdQLenPdf::10                     0                       # What read queue length does an incoming req see
system.mem_ctrls0.rdQLenPdf::11                     0                       # What read queue length does an incoming req see
system.mem_ctrls0.rdQLenPdf::12                     0                       # What read queue length does an incoming req see
system.mem_ctrls0.rdQLenPdf::13                     0                       # What read queue length does an incoming req see
system.mem_ctrls0.rdQLenPdf::14                     0                       # What read queue length does an incoming req see
system.mem_ctrls0.rdQLenPdf::15                     0                       # What read queue length does an incoming req see
system.mem_ctrls0.rdQLenPdf::16                     0                       # What read queue length does an incoming req see
system.mem_ctrls0.rdQLenPdf::17                     0                       # What read queue length does an incoming req see
system.mem_ctrls0.rdQLenPdf::18                     0                       # What read queue length does an incoming req see
system.mem_ctrls0.rdQLenPdf::19                     0                       # What read queue length does an incoming req see
system.mem_ctrls0.rdQLenPdf::20                     0                       # What read queue length does an incoming req see
system.mem_ctrls0.rdQLenPdf::21                     0                       # What read queue length does an incoming req see
system.mem_ctrls0.rdQLenPdf::22                     0                       # What read queue length does an incoming req see
system.mem_ctrls0.rdQLenPdf::23                     0                       # What read queue length does an incoming req see
system.mem_ctrls0.rdQLenPdf::24                     0                       # What read queue length does an incoming req see
system.mem_ctrls0.rdQLenPdf::25                     0                       # What read queue length does an incoming req see
system.mem_ctrls0.rdQLenPdf::26                     0                       # What read queue length does an incoming req see
system.mem_ctrls0.rdQLenPdf::27                     0                       # What read queue length does an incoming req see
system.mem_ctrls0.rdQLenPdf::28                     0                       # What read queue length does an incoming req see
system.mem_ctrls0.rdQLenPdf::29                     0                       # What read queue length does an incoming req see
system.mem_ctrls0.rdQLenPdf::30                     0                       # What read queue length does an incoming req see
system.mem_ctrls0.rdQLenPdf::31                     0                       # What read queue length does an incoming req see
system.mem_ctrls0.wrQLenPdf::0                      2                       # What write queue length does an incoming req see
system.mem_ctrls0.wrQLenPdf::1                      2                       # What write queue length does an incoming req see
system.mem_ctrls0.wrQLenPdf::2                      2                       # What write queue length does an incoming req see
system.mem_ctrls0.wrQLenPdf::3                      2                       # What write queue length does an incoming req see
system.mem_ctrls0.wrQLenPdf::4                      2                       # What write queue length does an incoming req see
system.mem_ctrls0.wrQLenPdf::5                      2                       # What write queue length does an incoming req see
system.mem_ctrls0.wrQLenPdf::6                      2                       # What write queue length does an incoming req see
system.mem_ctrls0.wrQLenPdf::7                      2                       # What write queue length does an incoming req see
system.mem_ctrls0.wrQLenPdf::8                      2                       # What write queue length does an incoming req see
system.mem_ctrls0.wrQLenPdf::9                      2                       # What write queue length does an incoming req see
system.mem_ctrls0.wrQLenPdf::10                     2                       # What write queue length does an incoming req see
system.mem_ctrls0.wrQLenPdf::11                     2                       # What write queue length does an incoming req see
system.mem_ctrls0.wrQLenPdf::12                     2                       # What write queue length does an incoming req see
system.mem_ctrls0.wrQLenPdf::13                     2                       # What write queue length does an incoming req see
system.mem_ctrls0.wrQLenPdf::14                     2                       # What write queue length does an incoming req see
system.mem_ctrls0.wrQLenPdf::15                 10600                       # What write queue length does an incoming req see
system.mem_ctrls0.wrQLenPdf::16                 10853                       # What write queue length does an incoming req see
system.mem_ctrls0.wrQLenPdf::17                 13527                       # What write queue length does an incoming req see
system.mem_ctrls0.wrQLenPdf::18                 14001                       # What write queue length does an incoming req see
system.mem_ctrls0.wrQLenPdf::19                 14060                       # What write queue length does an incoming req see
system.mem_ctrls0.wrQLenPdf::20                 14074                       # What write queue length does an incoming req see
system.mem_ctrls0.wrQLenPdf::21                 14104                       # What write queue length does an incoming req see
system.mem_ctrls0.wrQLenPdf::22                 14075                       # What write queue length does an incoming req see
system.mem_ctrls0.wrQLenPdf::23                 14119                       # What write queue length does an incoming req see
system.mem_ctrls0.wrQLenPdf::24                 14119                       # What write queue length does an incoming req see
system.mem_ctrls0.wrQLenPdf::25                 14115                       # What write queue length does an incoming req see
system.mem_ctrls0.wrQLenPdf::26                 14189                       # What write queue length does an incoming req see
system.mem_ctrls0.wrQLenPdf::27                 14115                       # What write queue length does an incoming req see
system.mem_ctrls0.wrQLenPdf::28                 14055                       # What write queue length does an incoming req see
system.mem_ctrls0.wrQLenPdf::29                 14065                       # What write queue length does an incoming req see
system.mem_ctrls0.wrQLenPdf::30                 14059                       # What write queue length does an incoming req see
system.mem_ctrls0.wrQLenPdf::31                 13986                       # What write queue length does an incoming req see
system.mem_ctrls0.wrQLenPdf::32                 13973                       # What write queue length does an incoming req see
system.mem_ctrls0.wrQLenPdf::33                    62                       # What write queue length does an incoming req see
system.mem_ctrls0.wrQLenPdf::34                    11                       # What write queue length does an incoming req see
system.mem_ctrls0.wrQLenPdf::35                     1                       # What write queue length does an incoming req see
system.mem_ctrls0.wrQLenPdf::36                     0                       # What write queue length does an incoming req see
system.mem_ctrls0.wrQLenPdf::37                     0                       # What write queue length does an incoming req see
system.mem_ctrls0.wrQLenPdf::38                     0                       # What write queue length does an incoming req see
system.mem_ctrls0.wrQLenPdf::39                     0                       # What write queue length does an incoming req see
system.mem_ctrls0.wrQLenPdf::40                     0                       # What write queue length does an incoming req see
system.mem_ctrls0.wrQLenPdf::41                     0                       # What write queue length does an incoming req see
system.mem_ctrls0.wrQLenPdf::42                     0                       # What write queue length does an incoming req see
system.mem_ctrls0.wrQLenPdf::43                     0                       # What write queue length does an incoming req see
system.mem_ctrls0.wrQLenPdf::44                     0                       # What write queue length does an incoming req see
system.mem_ctrls0.wrQLenPdf::45                     0                       # What write queue length does an incoming req see
system.mem_ctrls0.wrQLenPdf::46                     0                       # What write queue length does an incoming req see
system.mem_ctrls0.wrQLenPdf::47                     0                       # What write queue length does an incoming req see
system.mem_ctrls0.wrQLenPdf::48                     0                       # What write queue length does an incoming req see
system.mem_ctrls0.wrQLenPdf::49                     0                       # What write queue length does an incoming req see
system.mem_ctrls0.wrQLenPdf::50                     0                       # What write queue length does an incoming req see
system.mem_ctrls0.wrQLenPdf::51                     0                       # What write queue length does an incoming req see
system.mem_ctrls0.wrQLenPdf::52                     0                       # What write queue length does an incoming req see
system.mem_ctrls0.wrQLenPdf::53                     0                       # What write queue length does an incoming req see
system.mem_ctrls0.wrQLenPdf::54                     0                       # What write queue length does an incoming req see
system.mem_ctrls0.wrQLenPdf::55                     0                       # What write queue length does an incoming req see
system.mem_ctrls0.wrQLenPdf::56                     0                       # What write queue length does an incoming req see
system.mem_ctrls0.wrQLenPdf::57                     0                       # What write queue length does an incoming req see
system.mem_ctrls0.wrQLenPdf::58                     0                       # What write queue length does an incoming req see
system.mem_ctrls0.wrQLenPdf::59                     0                       # What write queue length does an incoming req see
system.mem_ctrls0.wrQLenPdf::60                     0                       # What write queue length does an incoming req see
system.mem_ctrls0.wrQLenPdf::61                     0                       # What write queue length does an incoming req see
system.mem_ctrls0.wrQLenPdf::62                     0                       # What write queue length does an incoming req see
system.mem_ctrls0.wrQLenPdf::63                     0                       # What write queue length does an incoming req see
system.mem_ctrls0.bytesPerActivate::samples       382275                       # Bytes accessed per row activation
system.mem_ctrls0.bytesPerActivate::mean   103.113706                       # Bytes accessed per row activation
system.mem_ctrls0.bytesPerActivate::gmean    83.490658                       # Bytes accessed per row activation
system.mem_ctrls0.bytesPerActivate::stdev   109.084438                       # Bytes accessed per row activation
system.mem_ctrls0.bytesPerActivate::0-127       287881     75.31%     75.31% # Bytes accessed per row activation
system.mem_ctrls0.bytesPerActivate::128-255        66790     17.47%     92.78% # Bytes accessed per row activation
system.mem_ctrls0.bytesPerActivate::256-383        15722      4.11%     96.89% # Bytes accessed per row activation
system.mem_ctrls0.bytesPerActivate::384-511         5913      1.55%     98.44% # Bytes accessed per row activation
system.mem_ctrls0.bytesPerActivate::512-639         1903      0.50%     98.94% # Bytes accessed per row activation
system.mem_ctrls0.bytesPerActivate::640-767          973      0.25%     99.19% # Bytes accessed per row activation
system.mem_ctrls0.bytesPerActivate::768-895          775      0.20%     99.39% # Bytes accessed per row activation
system.mem_ctrls0.bytesPerActivate::896-1023          641      0.17%     99.56% # Bytes accessed per row activation
system.mem_ctrls0.bytesPerActivate::1024-1151         1677      0.44%    100.00% # Bytes accessed per row activation
system.mem_ctrls0.bytesPerActivate::total       382275                       # Bytes accessed per row activation
system.mem_ctrls0.rdPerTurnAround::samples        13969                       # Reads before turning the bus around for writes
system.mem_ctrls0.rdPerTurnAround::mean     26.463741                       # Reads before turning the bus around for writes
system.mem_ctrls0.rdPerTurnAround::stdev   242.524494                       # Reads before turning the bus around for writes
system.mem_ctrls0.rdPerTurnAround::0-1023        13968     99.99%     99.99% # Reads before turning the bus around for writes
system.mem_ctrls0.rdPerTurnAround::27648-28671            1      0.01%    100.00% # Reads before turning the bus around for writes
system.mem_ctrls0.rdPerTurnAround::total        13969                       # Reads before turning the bus around for writes
system.mem_ctrls0.wrPerTurnAround::samples        13969                       # Writes before turning the bus around for reads
system.mem_ctrls0.wrPerTurnAround::mean     17.622450                       # Writes before turning the bus around for reads
system.mem_ctrls0.wrPerTurnAround::gmean    17.596495                       # Writes before turning the bus around for reads
system.mem_ctrls0.wrPerTurnAround::stdev     0.943826                       # Writes before turning the bus around for reads
system.mem_ctrls0.wrPerTurnAround::16            3151     22.56%     22.56% # Writes before turning the bus around for reads
system.mem_ctrls0.wrPerTurnAround::17             186      1.33%     23.89% # Writes before turning the bus around for reads
system.mem_ctrls0.wrPerTurnAround::18            9580     68.58%     92.47% # Writes before turning the bus around for reads
system.mem_ctrls0.wrPerTurnAround::19             926      6.63%     99.10% # Writes before turning the bus around for reads
system.mem_ctrls0.wrPerTurnAround::20             102      0.73%     99.83% # Writes before turning the bus around for reads
system.mem_ctrls0.wrPerTurnAround::21              16      0.11%     99.94% # Writes before turning the bus around for reads
system.mem_ctrls0.wrPerTurnAround::22               5      0.04%     99.98% # Writes before turning the bus around for reads
system.mem_ctrls0.wrPerTurnAround::23               2      0.01%     99.99% # Writes before turning the bus around for reads
system.mem_ctrls0.wrPerTurnAround::24               1      0.01%    100.00% # Writes before turning the bus around for reads
system.mem_ctrls0.wrPerTurnAround::total        13969                       # Writes before turning the bus around for reads
system.mem_ctrls0.totQLat                 17164650292                       # Total ticks spent queuing
system.mem_ctrls0.totMemAccLat            24097181542                       # Total ticks spent from burst creation until serviced by the DRAM
system.mem_ctrls0.totBusLat                1848675000                       # Total ticks spent in databus transfers
system.mem_ctrls0.avgQLat                    46424.20                       # Average queueing delay per DRAM burst
system.mem_ctrls0.avgBusLat                   5000.00                       # Average bus latency per DRAM burst
system.mem_ctrls0.avgMemAccLat               65174.20                       # Average memory access latency per DRAM burst
system.mem_ctrls0.avgRdBW                       19.07                       # Average DRAM read bandwidth in MiByte/s
system.mem_ctrls0.avgWrBW                       12.69                       # Average achieved write bandwidth in MiByte/s
system.mem_ctrls0.avgRdBWSys                    19.10                       # Average system read bandwidth in MiByte/s
system.mem_ctrls0.avgWrBWSys                    12.70                       # Average system write bandwidth in MiByte/s
system.mem_ctrls0.peakBW                     12800.00                       # Theoretical peak bandwidth in MiByte/s
system.mem_ctrls0.busUtil                        0.25                       # Data bus utilization in percentage
system.mem_ctrls0.busUtilRead                    0.15                       # Data bus utilization in percentage for reads
system.mem_ctrls0.busUtilWrite                   0.10                       # Data bus utilization in percentage for writes
system.mem_ctrls0.avgRdQLen                      1.00                       # Average read queue length when enqueuing
system.mem_ctrls0.avgWrQLen                     22.85                       # Average write queue length when enqueuing
system.mem_ctrls0.readRowHits                  181213                       # Number of row buffer hits during reads
system.mem_ctrls0.writeRowHits                  52415                       # Number of row buffer hits during writes
system.mem_ctrls0.readRowHitRate                49.01                       # Row buffer hit rate for reads
system.mem_ctrls0.writeRowHitRate               21.29                       # Row buffer hit rate for writes
system.mem_ctrls0.avgGap                   2012449.36                       # Average gap between requests
system.mem_ctrls0.pageHitRate                   37.93                       # Row buffer hit rate, read and write combined
system.mem_ctrls0_0.actEnergy              1374264360                       # Energy for activate commands per rank (pJ)
system.mem_ctrls0_0.preEnergy               730438830                       # Energy for precharge commands per rank (pJ)
system.mem_ctrls0_0.readEnergy             1331731380                       # Energy for read commands per rank (pJ)
system.mem_ctrls0_0.writeEnergy             648063000                       # Energy for write commands per rank (pJ)
system.mem_ctrls0_0.refreshEnergy        41677509120.000008                       # Energy for refresh commands per rank (pJ)
system.mem_ctrls0_0.actBackEnergy         23740721160                       # Energy for active background per rank (pJ)
system.mem_ctrls0_0.preBackEnergy          1989685920                       # Energy for precharge background per rank (pJ)
system.mem_ctrls0_0.actPowerDownEnergy   110683864260                       # Energy for active power-down per rank (pJ)
system.mem_ctrls0_0.prePowerDownEnergy    54544645440                       # Energy for precharge power-down per rank (pJ)
system.mem_ctrls0_0.selfRefreshEnergy    198316212780                       # Energy for self refresh per rank (pJ)
system.mem_ctrls0_0.totalEnergy          435051539910                       # Total energy per rank (pJ)
system.mem_ctrls0_0.averagePower           350.554379                       # Core power per rank (mW)
system.mem_ctrls0_0.totalIdleTime        1183498762167                       # Total Idle time Per DRAM Rank
system.mem_ctrls0_0.memoryStateTime::IDLE   3454431636                       # Time in different power states
system.mem_ctrls0_0.memoryStateTime::REF  17702638000                       # Time in different power states
system.mem_ctrls0_0.memoryStateTime::SREF 798991066010                       # Time in different power states
system.mem_ctrls0_0.memoryStateTime::PRE_PDN 142043505547                       # Time in different power states
system.mem_ctrls0_0.memoryStateTime::ACT  36120293545                       # Time in different power states
system.mem_ctrls0_0.memoryStateTime::ACT_PDN 242726724522                       # Time in different power states
system.mem_ctrls0_1.actEnergy              1355179140                       # Energy for activate commands per rank (pJ)
system.mem_ctrls0_1.preEnergy               720294795                       # Energy for precharge commands per rank (pJ)
system.mem_ctrls0_1.readEnergy             1308176520                       # Energy for read commands per rank (pJ)
system.mem_ctrls0_1.writeEnergy             636933960                       # Energy for write commands per rank (pJ)
system.mem_ctrls0_1.refreshEnergy        42549068640.000008                       # Energy for refresh commands per rank (pJ)
system.mem_ctrls0_1.actBackEnergy         23986672170                       # Energy for active background per rank (pJ)
system.mem_ctrls0_1.preBackEnergy          2023490880                       # Energy for precharge background per rank (pJ)
system.mem_ctrls0_1.actPowerDownEnergy   112749252990                       # Energy for active power-down per rank (pJ)
system.mem_ctrls0_1.prePowerDownEnergy    56005992960                       # Energy for precharge power-down per rank (pJ)
system.mem_ctrls0_1.selfRefreshEnergy    196323800325                       # Energy for self refresh per rank (pJ)
system.mem_ctrls0_1.totalEnergy          437675525970                       # Total energy per rank (pJ)
system.mem_ctrls0_1.averagePower           352.668727                       # Core power per rank (mW)
system.mem_ctrls0_1.totalIdleTime        1182882921811                       # Total Idle time Per DRAM Rank
system.mem_ctrls0_1.memoryStateTime::IDLE   3519868954                       # Time in different power states
system.mem_ctrls0_1.memoryStateTime::REF  18072992000                       # Time in different power states
system.mem_ctrls0_1.memoryStateTime::SREF 790023735010                       # Time in different power states
system.mem_ctrls0_1.memoryStateTime::PRE_PDN 145848123805                       # Time in different power states
system.mem_ctrls0_1.memoryStateTime::ACT  36317750956                       # Time in different power states
system.mem_ctrls0_1.memoryStateTime::ACT_PDN 247256188535                       # Time in different power states
system.mem_ctrls1.pwrStateResidencyTicks::UNDEFINED 191292348574260                       # Cumulative time (in ticks) in various power states
system.mem_ctrls1.bytes_read::cpu.inst            128                       # Number of bytes read from this memory
system.mem_ctrls1.bytes_read::cpu.data             64                       # Number of bytes read from this memory
system.mem_ctrls1.bytes_read::switch_cpus.inst        14144                       # Number of bytes read from this memory
system.mem_ctrls1.bytes_read::switch_cpus.data     19595904                       # Number of bytes read from this memory
system.mem_ctrls1.bytes_read::switch_cpus_1.inst          768                       # Number of bytes read from this memory
system.mem_ctrls1.bytes_read::switch_cpus_1.data      4126464                       # Number of bytes read from this memory
system.mem_ctrls1.bytes_read::total          23737472                       # Number of bytes read from this memory
system.mem_ctrls1.bytes_inst_read::cpu.inst          128                       # Number of instructions bytes read from this memory
system.mem_ctrls1.bytes_inst_read::switch_cpus.inst        14144                       # Number of instructions bytes read from this memory
system.mem_ctrls1.bytes_inst_read::switch_cpus_1.inst          768                       # Number of instructions bytes read from this memory
system.mem_ctrls1.bytes_inst_read::total        15040                       # Number of instructions bytes read from this memory
system.mem_ctrls1.bytes_written::writebacks     15783296                       # Number of bytes written to this memory
system.mem_ctrls1.bytes_written::total       15783296                       # Number of bytes written to this memory
system.mem_ctrls1.num_reads::cpu.inst               2                       # Number of read requests responded to by this memory
system.mem_ctrls1.num_reads::cpu.data               1                       # Number of read requests responded to by this memory
system.mem_ctrls1.num_reads::switch_cpus.inst          221                       # Number of read requests responded to by this memory
system.mem_ctrls1.num_reads::switch_cpus.data       306186                       # Number of read requests responded to by this memory
system.mem_ctrls1.num_reads::switch_cpus_1.inst           12                       # Number of read requests responded to by this memory
system.mem_ctrls1.num_reads::switch_cpus_1.data        64476                       # Number of read requests responded to by this memory
system.mem_ctrls1.num_reads::total             370898                       # Number of read requests responded to by this memory
system.mem_ctrls1.num_writes::writebacks       246614                       # Number of write requests responded to by this memory
system.mem_ctrls1.num_writes::total            246614                       # Number of write requests responded to by this memory
system.mem_ctrls1.bw_read::cpu.inst               103                       # Total read bandwidth from this memory (bytes/s)
system.mem_ctrls1.bw_read::cpu.data                52                       # Total read bandwidth from this memory (bytes/s)
system.mem_ctrls1.bw_read::switch_cpus.inst        11397                       # Total read bandwidth from this memory (bytes/s)
system.mem_ctrls1.bw_read::switch_cpus.data     15789922                       # Total read bandwidth from this memory (bytes/s)
system.mem_ctrls1.bw_read::switch_cpus_1.inst          619                       # Total read bandwidth from this memory (bytes/s)
system.mem_ctrls1.bw_read::switch_cpus_1.data      3325008                       # Total read bandwidth from this memory (bytes/s)
system.mem_ctrls1.bw_read::total             19127101                       # Total read bandwidth from this memory (bytes/s)
system.mem_ctrls1.bw_inst_read::cpu.inst          103                       # Instruction read bandwidth from this memory (bytes/s)
system.mem_ctrls1.bw_inst_read::switch_cpus.inst        11397                       # Instruction read bandwidth from this memory (bytes/s)
system.mem_ctrls1.bw_inst_read::switch_cpus_1.inst          619                       # Instruction read bandwidth from this memory (bytes/s)
system.mem_ctrls1.bw_inst_read::total           12119                       # Instruction read bandwidth from this memory (bytes/s)
system.mem_ctrls1.bw_write::writebacks       12717812                       # Write bandwidth from this memory (bytes/s)
system.mem_ctrls1.bw_write::total            12717812                       # Write bandwidth from this memory (bytes/s)
system.mem_ctrls1.bw_total::writebacks       12717812                       # Total bandwidth to/from this memory (bytes/s)
system.mem_ctrls1.bw_total::cpu.inst              103                       # Total bandwidth to/from this memory (bytes/s)
system.mem_ctrls1.bw_total::cpu.data               52                       # Total bandwidth to/from this memory (bytes/s)
system.mem_ctrls1.bw_total::switch_cpus.inst        11397                       # Total bandwidth to/from this memory (bytes/s)
system.mem_ctrls1.bw_total::switch_cpus.data     15789922                       # Total bandwidth to/from this memory (bytes/s)
system.mem_ctrls1.bw_total::switch_cpus_1.inst          619                       # Total bandwidth to/from this memory (bytes/s)
system.mem_ctrls1.bw_total::switch_cpus_1.data      3325008                       # Total bandwidth to/from this memory (bytes/s)
system.mem_ctrls1.bw_total::total            31844913                       # Total bandwidth to/from this memory (bytes/s)
system.mem_ctrls1.readReqs                     370898                       # Number of read requests accepted
system.mem_ctrls1.writeReqs                    246614                       # Number of write requests accepted
system.mem_ctrls1.readBursts                   370898                       # Number of DRAM read bursts, including those serviced by the write queue
system.mem_ctrls1.writeBursts                  246614                       # Number of DRAM write bursts, including those merged in the write queue
system.mem_ctrls1.bytesReadDRAM              23697216                       # Total number of bytes read from DRAM
system.mem_ctrls1.bytesReadWrQ                  40256                       # Total number of bytes read from write queue
system.mem_ctrls1.bytesWritten               15781504                       # Total number of bytes written to DRAM
system.mem_ctrls1.bytesReadSys               23737472                       # Total read bytes from the system interface side
system.mem_ctrls1.bytesWrittenSys            15783296                       # Total written bytes from the system interface side
system.mem_ctrls1.servicedByWrQ                   629                       # Number of DRAM read bursts serviced by the write queue
system.mem_ctrls1.mergedWrBursts                    0                       # Number of DRAM write bursts merged with an existing one
system.mem_ctrls1.neitherReadNorWriteReqs            0                       # Number of requests that are neither read nor write
system.mem_ctrls1.perBankRdBursts::0            24130                       # Per bank write bursts
system.mem_ctrls1.perBankRdBursts::1            23603                       # Per bank write bursts
system.mem_ctrls1.perBankRdBursts::2            24416                       # Per bank write bursts
system.mem_ctrls1.perBankRdBursts::3            23835                       # Per bank write bursts
system.mem_ctrls1.perBankRdBursts::4            21735                       # Per bank write bursts
system.mem_ctrls1.perBankRdBursts::5            22637                       # Per bank write bursts
system.mem_ctrls1.perBankRdBursts::6            22861                       # Per bank write bursts
system.mem_ctrls1.perBankRdBursts::7            23675                       # Per bank write bursts
system.mem_ctrls1.perBankRdBursts::8            24221                       # Per bank write bursts
system.mem_ctrls1.perBankRdBursts::9            22512                       # Per bank write bursts
system.mem_ctrls1.perBankRdBursts::10           23286                       # Per bank write bursts
system.mem_ctrls1.perBankRdBursts::11           22708                       # Per bank write bursts
system.mem_ctrls1.perBankRdBursts::12           21386                       # Per bank write bursts
system.mem_ctrls1.perBankRdBursts::13           22348                       # Per bank write bursts
system.mem_ctrls1.perBankRdBursts::14           22677                       # Per bank write bursts
system.mem_ctrls1.perBankRdBursts::15           24239                       # Per bank write bursts
system.mem_ctrls1.perBankWrBursts::0            16172                       # Per bank write bursts
system.mem_ctrls1.perBankWrBursts::1            15802                       # Per bank write bursts
system.mem_ctrls1.perBankWrBursts::2            16309                       # Per bank write bursts
system.mem_ctrls1.perBankWrBursts::3            15743                       # Per bank write bursts
system.mem_ctrls1.perBankWrBursts::4            14060                       # Per bank write bursts
system.mem_ctrls1.perBankWrBursts::5            14973                       # Per bank write bursts
system.mem_ctrls1.perBankWrBursts::6            15300                       # Per bank write bursts
system.mem_ctrls1.perBankWrBursts::7            15948                       # Per bank write bursts
system.mem_ctrls1.perBankWrBursts::8            16105                       # Per bank write bursts
system.mem_ctrls1.perBankWrBursts::9            14995                       # Per bank write bursts
system.mem_ctrls1.perBankWrBursts::10           15455                       # Per bank write bursts
system.mem_ctrls1.perBankWrBursts::11           15104                       # Per bank write bursts
system.mem_ctrls1.perBankWrBursts::12           14319                       # Per bank write bursts
system.mem_ctrls1.perBankWrBursts::13           14733                       # Per bank write bursts
system.mem_ctrls1.perBankWrBursts::14           15191                       # Per bank write bursts
system.mem_ctrls1.perBankWrBursts::15           16377                       # Per bank write bursts
system.mem_ctrls1.numRdRetry                        0                       # Number of times read queue was full causing retry
system.mem_ctrls1.numWrRetry                        0                       # Number of times write queue was full causing retry
system.mem_ctrls1.totGap                 1240775976006                       # Total gap between requests
system.mem_ctrls1.readPktSize::0                    0                       # Read request sizes (log2)
system.mem_ctrls1.readPktSize::1                    0                       # Read request sizes (log2)
system.mem_ctrls1.readPktSize::2                    0                       # Read request sizes (log2)
system.mem_ctrls1.readPktSize::3                    0                       # Read request sizes (log2)
system.mem_ctrls1.readPktSize::4                    0                       # Read request sizes (log2)
system.mem_ctrls1.readPktSize::5                    0                       # Read request sizes (log2)
system.mem_ctrls1.readPktSize::6               370898                       # Read request sizes (log2)
system.mem_ctrls1.writePktSize::0                   0                       # Write request sizes (log2)
system.mem_ctrls1.writePktSize::1                   0                       # Write request sizes (log2)
system.mem_ctrls1.writePktSize::2                   0                       # Write request sizes (log2)
system.mem_ctrls1.writePktSize::3                   0                       # Write request sizes (log2)
system.mem_ctrls1.writePktSize::4                   0                       # Write request sizes (log2)
system.mem_ctrls1.writePktSize::5                   0                       # Write request sizes (log2)
system.mem_ctrls1.writePktSize::6              246614                       # Write request sizes (log2)
system.mem_ctrls1.rdQLenPdf::0                 363821                       # What read queue length does an incoming req see
system.mem_ctrls1.rdQLenPdf::1                   6282                       # What read queue length does an incoming req see
system.mem_ctrls1.rdQLenPdf::2                    147                       # What read queue length does an incoming req see
system.mem_ctrls1.rdQLenPdf::3                     19                       # What read queue length does an incoming req see
system.mem_ctrls1.rdQLenPdf::4                      0                       # What read queue length does an incoming req see
system.mem_ctrls1.rdQLenPdf::5                      0                       # What read queue length does an incoming req see
system.mem_ctrls1.rdQLenPdf::6                      0                       # What read queue length does an incoming req see
system.mem_ctrls1.rdQLenPdf::7                      0                       # What read queue length does an incoming req see
system.mem_ctrls1.rdQLenPdf::8                      0                       # What read queue length does an incoming req see
system.mem_ctrls1.rdQLenPdf::9                      0                       # What read queue length does an incoming req see
system.mem_ctrls1.rdQLenPdf::10                     0                       # What read queue length does an incoming req see
system.mem_ctrls1.rdQLenPdf::11                     0                       # What read queue length does an incoming req see
system.mem_ctrls1.rdQLenPdf::12                     0                       # What read queue length does an incoming req see
system.mem_ctrls1.rdQLenPdf::13                     0                       # What read queue length does an incoming req see
system.mem_ctrls1.rdQLenPdf::14                     0                       # What read queue length does an incoming req see
system.mem_ctrls1.rdQLenPdf::15                     0                       # What read queue length does an incoming req see
system.mem_ctrls1.rdQLenPdf::16                     0                       # What read queue length does an incoming req see
system.mem_ctrls1.rdQLenPdf::17                     0                       # What read queue length does an incoming req see
system.mem_ctrls1.rdQLenPdf::18                     0                       # What read queue length does an incoming req see
system.mem_ctrls1.rdQLenPdf::19                     0                       # What read queue length does an incoming req see
system.mem_ctrls1.rdQLenPdf::20                     0                       # What read queue length does an incoming req see
system.mem_ctrls1.rdQLenPdf::21                     0                       # What read queue length does an incoming req see
system.mem_ctrls1.rdQLenPdf::22                     0                       # What read queue length does an incoming req see
system.mem_ctrls1.rdQLenPdf::23                     0                       # What read queue length does an incoming req see
system.mem_ctrls1.rdQLenPdf::24                     0                       # What read queue length does an incoming req see
system.mem_ctrls1.rdQLenPdf::25                     0                       # What read queue length does an incoming req see
system.mem_ctrls1.rdQLenPdf::26                     0                       # What read queue length does an incoming req see
system.mem_ctrls1.rdQLenPdf::27                     0                       # What read queue length does an incoming req see
system.mem_ctrls1.rdQLenPdf::28                     0                       # What read queue length does an incoming req see
system.mem_ctrls1.rdQLenPdf::29                     0                       # What read queue length does an incoming req see
system.mem_ctrls1.rdQLenPdf::30                     0                       # What read queue length does an incoming req see
system.mem_ctrls1.rdQLenPdf::31                     0                       # What read queue length does an incoming req see
system.mem_ctrls1.wrQLenPdf::0                      2                       # What write queue length does an incoming req see
system.mem_ctrls1.wrQLenPdf::1                      2                       # What write queue length does an incoming req see
system.mem_ctrls1.wrQLenPdf::2                      2                       # What write queue length does an incoming req see
system.mem_ctrls1.wrQLenPdf::3                      2                       # What write queue length does an incoming req see
system.mem_ctrls1.wrQLenPdf::4                      2                       # What write queue length does an incoming req see
system.mem_ctrls1.wrQLenPdf::5                      2                       # What write queue length does an incoming req see
system.mem_ctrls1.wrQLenPdf::6                      2                       # What write queue length does an incoming req see
system.mem_ctrls1.wrQLenPdf::7                      2                       # What write queue length does an incoming req see
system.mem_ctrls1.wrQLenPdf::8                      2                       # What write queue length does an incoming req see
system.mem_ctrls1.wrQLenPdf::9                      2                       # What write queue length does an incoming req see
system.mem_ctrls1.wrQLenPdf::10                     2                       # What write queue length does an incoming req see
system.mem_ctrls1.wrQLenPdf::11                     2                       # What write queue length does an incoming req see
system.mem_ctrls1.wrQLenPdf::12                     2                       # What write queue length does an incoming req see
system.mem_ctrls1.wrQLenPdf::13                     2                       # What write queue length does an incoming req see
system.mem_ctrls1.wrQLenPdf::14                     2                       # What write queue length does an incoming req see
system.mem_ctrls1.wrQLenPdf::15                 10666                       # What write queue length does an incoming req see
system.mem_ctrls1.wrQLenPdf::16                 10917                       # What write queue length does an incoming req see
system.mem_ctrls1.wrQLenPdf::17                 13564                       # What write queue length does an incoming req see
system.mem_ctrls1.wrQLenPdf::18                 14036                       # What write queue length does an incoming req see
system.mem_ctrls1.wrQLenPdf::19                 14088                       # What write queue length does an incoming req see
system.mem_ctrls1.wrQLenPdf::20                 14088                       # What write queue length does an incoming req see
system.mem_ctrls1.wrQLenPdf::21                 14128                       # What write queue length does an incoming req see
system.mem_ctrls1.wrQLenPdf::22                 14118                       # What write queue length does an incoming req see
system.mem_ctrls1.wrQLenPdf::23                 14118                       # What write queue length does an incoming req see
system.mem_ctrls1.wrQLenPdf::24                 14124                       # What write queue length does an incoming req see
system.mem_ctrls1.wrQLenPdf::25                 14145                       # What write queue length does an incoming req see
system.mem_ctrls1.wrQLenPdf::26                 14214                       # What write queue length does an incoming req see
system.mem_ctrls1.wrQLenPdf::27                 14086                       # What write queue length does an incoming req see
system.mem_ctrls1.wrQLenPdf::28                 14071                       # What write queue length does an incoming req see
system.mem_ctrls1.wrQLenPdf::29                 14058                       # What write queue length does an incoming req see
system.mem_ctrls1.wrQLenPdf::30                 14090                       # What write queue length does an incoming req see
system.mem_ctrls1.wrQLenPdf::31                 14004                       # What write queue length does an incoming req see
system.mem_ctrls1.wrQLenPdf::32                 13991                       # What write queue length does an incoming req see
system.mem_ctrls1.wrQLenPdf::33                    67                       # What write queue length does an incoming req see
system.mem_ctrls1.wrQLenPdf::34                    10                       # What write queue length does an incoming req see
system.mem_ctrls1.wrQLenPdf::35                     1                       # What write queue length does an incoming req see
system.mem_ctrls1.wrQLenPdf::36                     0                       # What write queue length does an incoming req see
system.mem_ctrls1.wrQLenPdf::37                     0                       # What write queue length does an incoming req see
system.mem_ctrls1.wrQLenPdf::38                     0                       # What write queue length does an incoming req see
system.mem_ctrls1.wrQLenPdf::39                     0                       # What write queue length does an incoming req see
system.mem_ctrls1.wrQLenPdf::40                     0                       # What write queue length does an incoming req see
system.mem_ctrls1.wrQLenPdf::41                     0                       # What write queue length does an incoming req see
system.mem_ctrls1.wrQLenPdf::42                     0                       # What write queue length does an incoming req see
system.mem_ctrls1.wrQLenPdf::43                     0                       # What write queue length does an incoming req see
system.mem_ctrls1.wrQLenPdf::44                     0                       # What write queue length does an incoming req see
system.mem_ctrls1.wrQLenPdf::45                     0                       # What write queue length does an incoming req see
system.mem_ctrls1.wrQLenPdf::46                     0                       # What write queue length does an incoming req see
system.mem_ctrls1.wrQLenPdf::47                     0                       # What write queue length does an incoming req see
system.mem_ctrls1.wrQLenPdf::48                     0                       # What write queue length does an incoming req see
system.mem_ctrls1.wrQLenPdf::49                     0                       # What write queue length does an incoming req see
system.mem_ctrls1.wrQLenPdf::50                     0                       # What write queue length does an incoming req see
system.mem_ctrls1.wrQLenPdf::51                     0                       # What write queue length does an incoming req see
system.mem_ctrls1.wrQLenPdf::52                     0                       # What write queue length does an incoming req see
system.mem_ctrls1.wrQLenPdf::53                     0                       # What write queue length does an incoming req see
system.mem_ctrls1.wrQLenPdf::54                     0                       # What write queue length does an incoming req see
system.mem_ctrls1.wrQLenPdf::55                     0                       # What write queue length does an incoming req see
system.mem_ctrls1.wrQLenPdf::56                     0                       # What write queue length does an incoming req see
system.mem_ctrls1.wrQLenPdf::57                     0                       # What write queue length does an incoming req see
system.mem_ctrls1.wrQLenPdf::58                     0                       # What write queue length does an incoming req see
system.mem_ctrls1.wrQLenPdf::59                     0                       # What write queue length does an incoming req see
system.mem_ctrls1.wrQLenPdf::60                     0                       # What write queue length does an incoming req see
system.mem_ctrls1.wrQLenPdf::61                     0                       # What write queue length does an incoming req see
system.mem_ctrls1.wrQLenPdf::62                     0                       # What write queue length does an incoming req see
system.mem_ctrls1.wrQLenPdf::63                     0                       # What write queue length does an incoming req see
system.mem_ctrls1.bytesPerActivate::samples       383143                       # Bytes accessed per row activation
system.mem_ctrls1.bytesPerActivate::mean   103.039126                       # Bytes accessed per row activation
system.mem_ctrls1.bytesPerActivate::gmean    83.464925                       # Bytes accessed per row activation
system.mem_ctrls1.bytesPerActivate::stdev   109.054903                       # Bytes accessed per row activation
system.mem_ctrls1.bytesPerActivate::0-127       288481     75.29%     75.29% # Bytes accessed per row activation
system.mem_ctrls1.bytesPerActivate::128-255        67167     17.53%     92.82% # Bytes accessed per row activation
system.mem_ctrls1.bytesPerActivate::256-383        15660      4.09%     96.91% # Bytes accessed per row activation
system.mem_ctrls1.bytesPerActivate::384-511         5909      1.54%     98.45% # Bytes accessed per row activation
system.mem_ctrls1.bytesPerActivate::512-639         1821      0.48%     98.93% # Bytes accessed per row activation
system.mem_ctrls1.bytesPerActivate::640-767          976      0.25%     99.18% # Bytes accessed per row activation
system.mem_ctrls1.bytesPerActivate::768-895          775      0.20%     99.39% # Bytes accessed per row activation
system.mem_ctrls1.bytesPerActivate::896-1023          666      0.17%     99.56% # Bytes accessed per row activation
system.mem_ctrls1.bytesPerActivate::1024-1151         1688      0.44%    100.00% # Bytes accessed per row activation
system.mem_ctrls1.bytesPerActivate::total       383143                       # Bytes accessed per row activation
system.mem_ctrls1.rdPerTurnAround::samples        13987                       # Reads before turning the bus around for writes
system.mem_ctrls1.rdPerTurnAround::mean     26.461428                       # Reads before turning the bus around for writes
system.mem_ctrls1.rdPerTurnAround::stdev   244.986433                       # Reads before turning the bus around for writes
system.mem_ctrls1.rdPerTurnAround::0-1023        13986     99.99%     99.99% # Reads before turning the bus around for writes
system.mem_ctrls1.rdPerTurnAround::28672-29695            1      0.01%    100.00% # Reads before turning the bus around for writes
system.mem_ctrls1.rdPerTurnAround::total        13987                       # Reads before turning the bus around for writes
system.mem_ctrls1.wrPerTurnAround::samples        13987                       # Writes before turning the bus around for reads
system.mem_ctrls1.wrPerTurnAround::mean     17.629656                       # Writes before turning the bus around for reads
system.mem_ctrls1.wrPerTurnAround::gmean    17.603815                       # Writes before turning the bus around for reads
system.mem_ctrls1.wrPerTurnAround::stdev     0.941808                       # Writes before turning the bus around for reads
system.mem_ctrls1.wrPerTurnAround::16            3121     22.31%     22.31% # Writes before turning the bus around for reads
system.mem_ctrls1.wrPerTurnAround::17             170      1.22%     23.53% # Writes before turning the bus around for reads
system.mem_ctrls1.wrPerTurnAround::18            9629     68.84%     92.37% # Writes before turning the bus around for reads
system.mem_ctrls1.wrPerTurnAround::19             942      6.73%     99.11% # Writes before turning the bus around for reads
system.mem_ctrls1.wrPerTurnAround::20              97      0.69%     99.80% # Writes before turning the bus around for reads
system.mem_ctrls1.wrPerTurnAround::21              18      0.13%     99.93% # Writes before turning the bus around for reads
system.mem_ctrls1.wrPerTurnAround::22               8      0.06%     99.99% # Writes before turning the bus around for reads
system.mem_ctrls1.wrPerTurnAround::23               2      0.01%    100.00% # Writes before turning the bus around for reads
system.mem_ctrls1.wrPerTurnAround::total        13987                       # Writes before turning the bus around for reads
system.mem_ctrls1.totQLat                 17099835311                       # Total ticks spent queuing
system.mem_ctrls1.totMemAccLat            24042379061                       # Total ticks spent from burst creation until serviced by the DRAM
system.mem_ctrls1.totBusLat                1851345000                       # Total ticks spent in databus transfers
system.mem_ctrls1.avgQLat                    46182.20                       # Average queueing delay per DRAM burst
system.mem_ctrls1.avgBusLat                   5000.00                       # Average bus latency per DRAM burst
system.mem_ctrls1.avgMemAccLat               64932.20                       # Average memory access latency per DRAM burst
system.mem_ctrls1.avgRdBW                       19.09                       # Average DRAM read bandwidth in MiByte/s
system.mem_ctrls1.avgWrBW                       12.72                       # Average achieved write bandwidth in MiByte/s
system.mem_ctrls1.avgRdBWSys                    19.13                       # Average system read bandwidth in MiByte/s
system.mem_ctrls1.avgWrBWSys                    12.72                       # Average system write bandwidth in MiByte/s
system.mem_ctrls1.peakBW                     12800.00                       # Theoretical peak bandwidth in MiByte/s
system.mem_ctrls1.busUtil                        0.25                       # Data bus utilization in percentage
system.mem_ctrls1.busUtilRead                    0.15                       # Data bus utilization in percentage for reads
system.mem_ctrls1.busUtilWrite                   0.10                       # Data bus utilization in percentage for writes
system.mem_ctrls1.avgRdQLen                      1.00                       # Average read queue length when enqueuing
system.mem_ctrls1.avgWrQLen                     23.00                       # Average write queue length when enqueuing
system.mem_ctrls1.readRowHits                  181311                       # Number of row buffer hits during reads
system.mem_ctrls1.writeRowHits                  52401                       # Number of row buffer hits during writes
system.mem_ctrls1.readRowHitRate                48.97                       # Row buffer hit rate for reads
system.mem_ctrls1.writeRowHitRate               21.25                       # Row buffer hit rate for writes
system.mem_ctrls1.avgGap                   2009314.76                       # Average gap between requests
system.mem_ctrls1.pageHitRate                   37.89                       # Row buffer hit rate, read and write combined
system.mem_ctrls1_0.actEnergy              1378505520                       # Energy for activate commands per rank (pJ)
system.mem_ctrls1_0.preEnergy               732693060                       # Energy for precharge commands per rank (pJ)
system.mem_ctrls1_0.readEnergy             1334408880                       # Energy for read commands per rank (pJ)
system.mem_ctrls1_0.writeEnergy             648882540                       # Energy for write commands per rank (pJ)
system.mem_ctrls1_0.refreshEnergy        41842847280.000008                       # Energy for refresh commands per rank (pJ)
system.mem_ctrls1_0.actBackEnergy         23908361010                       # Energy for active background per rank (pJ)
system.mem_ctrls1_0.preBackEnergy          1993937280                       # Energy for precharge background per rank (pJ)
system.mem_ctrls1_0.actPowerDownEnergy   111312300660                       # Energy for active power-down per rank (pJ)
system.mem_ctrls1_0.prePowerDownEnergy    54580033920                       # Energy for precharge power-down per rank (pJ)
system.mem_ctrls1_0.selfRefreshEnergy    197891286450                       # Energy for self refresh per rank (pJ)
system.mem_ctrls1_0.totalEnergy          435637157100                       # Total energy per rank (pJ)
system.mem_ctrls1_0.averagePower           351.026254                       # Core power per rank (mW)
system.mem_ctrls1_0.totalIdleTime        1183118686763                       # Total Idle time Per DRAM Rank
system.mem_ctrls1_0.memoryStateTime::IDLE   3462554017                       # Time in different power states
system.mem_ctrls1_0.memoryStateTime::REF  17772710000                       # Time in different power states
system.mem_ctrls1_0.memoryStateTime::SREF 797143073260                       # Time in different power states
system.mem_ctrls1_0.memoryStateTime::PRE_PDN 142135170065                       # Time in different power states
system.mem_ctrls1_0.memoryStateTime::ACT  36419499246                       # Time in different power states
system.mem_ctrls1_0.memoryStateTime::ACT_PDN 244105652672                       # Time in different power states
system.mem_ctrls1_1.actEnergy              1357135500                       # Energy for activate commands per rank (pJ)
system.mem_ctrls1_1.preEnergy               721334625                       # Energy for precharge commands per rank (pJ)
system.mem_ctrls1_1.readEnergy             1309311780                       # Energy for read commands per rank (pJ)
system.mem_ctrls1_1.writeEnergy             638296380                       # Energy for write commands per rank (pJ)
system.mem_ctrls1_1.refreshEnergy        42345622800.000008                       # Energy for refresh commands per rank (pJ)
system.mem_ctrls1_1.actBackEnergy         23835436920                       # Energy for active background per rank (pJ)
system.mem_ctrls1_1.preBackEnergy          2008667520                       # Energy for precharge background per rank (pJ)
system.mem_ctrls1_1.actPowerDownEnergy   112916819880                       # Energy for active power-down per rank (pJ)
system.mem_ctrls1_1.prePowerDownEnergy    55562742240                       # Energy for precharge power-down per rank (pJ)
system.mem_ctrls1_1.selfRefreshEnergy    196493172015                       # Energy for self refresh per rank (pJ)
system.mem_ctrls1_1.totalEnergy          437202307320                       # Total energy per rank (pJ)
system.mem_ctrls1_1.averagePower           352.287418                       # Core power per rank (mW)
system.mem_ctrls1_1.totalIdleTime        1183255313023                       # Total Idle time Per DRAM Rank
system.mem_ctrls1_1.memoryStateTime::IDLE   3477679712                       # Time in different power states
system.mem_ctrls1_1.memoryStateTime::REF  17986002000                       # Time in different power states
system.mem_ctrls1_1.memoryStateTime::SREF 791187185010                       # Time in different power states
system.mem_ctrls1_1.memoryStateTime::PRE_PDN 144695367137                       # Time in different power states
system.mem_ctrls1_1.memoryStateTime::ACT  36068184969                       # Time in different power states
system.mem_ctrls1_1.memoryStateTime::ACT_PDN 247624240432                       # Time in different power states
system.pwrStateResidencyTicks::UNDEFINED 191292348574260                       # Cumulative time (in ticks) in various power states
system.cpu.branchPred.lookups                       4                       # Number of BP lookups
system.cpu.branchPred.condPredicted                 2                       # Number of conditional branches predicted
system.cpu.branchPred.condIncorrect                 2                       # Number of conditional branches incorrect
system.cpu.branchPred.BTBLookups                    2                       # Number of BTB lookups
system.cpu.branchPred.BTBHits                       0                       # Number of BTB hits
system.cpu.branchPred.BTBCorrect                    0                       # Number of correct BTB predictions (this stat may not work properly.
system.cpu.branchPred.BTBHitPct              0.000000                       # BTB Hit Percentage
system.cpu.branchPred.usedRAS                       0                       # Number of times the RAS was used to get a target.
system.cpu.branchPred.RASInCorrect                  0                       # Number of incorrect RAS predictions.
system.cpu.branchPred.indirectLookups               0                       # Number of indirect predictor lookups.
system.cpu.branchPred.indirectHits                  0                       # Number of indirect target hits.
system.cpu.branchPred.indirectMisses                0                       # Number of indirect misses.
system.cpu.branchPredindirectMispredicted            0                       # Number of mispredicted indirect branches.
system.cpu_voltage_domain.voltage                   1                       # Voltage in Volts
system.cpu_clk_domain.clock                       333                       # Clock period in ticks
system.cpu.dtb.fetch_hits                           0                       # ITB hits
system.cpu.dtb.fetch_misses                         0                       # ITB misses
system.cpu.dtb.fetch_acv                            0                       # ITB acv
system.cpu.dtb.fetch_accesses                       0                       # ITB accesses
system.cpu.dtb.read_hits                            6                       # DTB read hits
system.cpu.dtb.read_misses                          0                       # DTB read misses
system.cpu.dtb.read_acv                             0                       # DTB read access violations
system.cpu.dtb.read_accesses                        6                       # DTB read accesses
system.cpu.dtb.write_hits                           1                       # DTB write hits
system.cpu.dtb.write_misses                         0                       # DTB write misses
system.cpu.dtb.write_acv                            0                       # DTB write access violations
system.cpu.dtb.write_accesses                       1                       # DTB write accesses
system.cpu.dtb.data_hits                            7                       # DTB hits
system.cpu.dtb.data_misses                          0                       # DTB misses
system.cpu.dtb.data_acv                             0                       # DTB access violations
system.cpu.dtb.data_accesses                        7                       # DTB accesses
system.cpu.itb.fetch_hits                           7                       # ITB hits
system.cpu.itb.fetch_misses                         0                       # ITB misses
system.cpu.itb.fetch_acv                            0                       # ITB acv
system.cpu.itb.fetch_accesses                       7                       # ITB accesses
system.cpu.itb.read_hits                            0                       # DTB read hits
system.cpu.itb.read_misses                          0                       # DTB read misses
system.cpu.itb.read_acv                             0                       # DTB read access violations
system.cpu.itb.read_accesses                        0                       # DTB read accesses
system.cpu.itb.write_hits                           0                       # DTB write hits
system.cpu.itb.write_misses                         0                       # DTB write misses
system.cpu.itb.write_acv                            0                       # DTB write access violations
system.cpu.itb.write_accesses                       0                       # DTB write accesses
system.cpu.itb.data_hits                            0                       # DTB hits
system.cpu.itb.data_misses                          0                       # DTB misses
system.cpu.itb.data_acv                             0                       # DTB access violations
system.cpu.itb.data_accesses                        0                       # DTB accesses
system.cpu.workload.num_syscalls                    0                       # Number of system calls
system.cpu.pwrStateResidencyTicks::ON    1241038659260                       # Cumulative time (in ticks) in various power states
system.cpu.numCycles                             1043                       # number of cpu cycles simulated
system.cpu.numWorkItemsStarted                      0                       # number of work items this cpu started
system.cpu.numWorkItemsCompleted                    0                       # number of work items this cpu completed
system.cpu.fetch.icacheStallCycles                 50                       # Number of cycles fetch is stalled on an Icache miss
system.cpu.fetch.Insts                             19                       # Number of instructions fetch has processed
system.cpu.fetch.Branches                           4                       # Number of branches that fetch encountered
system.cpu.fetch.Cycles                             4                       # Number of cycles fetch has run and was not squashing or blocked
system.cpu.fetch.SquashCycles                       7                       # Number of cycles fetch has spent squashing
system.cpu.fetch.PendingDrainCycles                 6                       # Number of cycles fetch has spent waiting on pipes to drain
system.cpu.fetch.CacheLines                         7                       # Number of cache lines fetched
system.cpu.fetch.IcacheSquashes                     4                       # Number of outstanding Icache misses that were squashed
system.cpu.fetch.rateDist::samples                 63                       # Number of instructions fetched each cycle (Total)
system.cpu.fetch.rateDist::mean              0.301587                       # Number of instructions fetched each cycle (Total)
system.cpu.fetch.rateDist::stdev             1.432738                       # Number of instructions fetched each cycle (Total)
system.cpu.fetch.rateDist::underflows               0      0.00%      0.00% # Number of instructions fetched each cycle (Total)
system.cpu.fetch.rateDist::0                       59     93.65%     93.65% # Number of instructions fetched each cycle (Total)
system.cpu.fetch.rateDist::1                        1      1.59%     95.24% # Number of instructions fetched each cycle (Total)
system.cpu.fetch.rateDist::2                        1      1.59%     96.83% # Number of instructions fetched each cycle (Total)
system.cpu.fetch.rateDist::3                        0      0.00%     96.83% # Number of instructions fetched each cycle (Total)
system.cpu.fetch.rateDist::4                        0      0.00%     96.83% # Number of instructions fetched each cycle (Total)
system.cpu.fetch.rateDist::5                        0      0.00%     96.83% # Number of instructions fetched each cycle (Total)
[...]
system.switch_cpus_1.iq.int_inst_queue_writes    560105172                       # Number of integer instruction queue writes
system.switch_cpus_1.iq.int_inst_queue_wakeup_accesses    316362718                       # Number of integer instruction queue wakeup accesses
system.switch_cpus_1.iq.fp_inst_queue_reads          222                       # Number of floating instruction queue reads
system.switch_cpus_1.iq.fp_inst_queue_writes          177                       # Number of floating instruction queue writes
system.switch_cpus_1.iq.fp_inst_queue_wakeup_accesses          101                       # Number of floating instruction queue wakeup accesses
system.switch_cpus_1.iq.int_alu_accesses    341209493                       # Number of integer alu accesses
system.switch_cpus_1.iq.fp_alu_accesses           111                       # Number of floating point alu accesses
system.switch_cpus_1.iew.lsq.thread0.forwLoads      3716992                       # Number of loads that had data forwarded from stores
system.switch_cpus_1.iew.lsq.thread0.invAddrLoads            0                       # Number of loads ignored due to an invalid address
system.switch_cpus_1.iew.lsq.thread0.squashedLoads     43020876                       # Number of loads squashed
system.switch_cpus_1.iew.lsq.thread0.ignoredResponses        24634                       # Number of memory responses ignored because the instruction is squashed
system.switch_cpus_1.iew.lsq.thread0.memOrderViolation        12235                       # Number of memory ordering violations
system.switch_cpus_1.iew.lsq.thread0.squashedStores     13357387                       # Number of stores squashed
system.switch_cpus_1.iew.lsq.thread0.invAddrSwpfs            0                       # Number of software prefetches ignored due to an invalid address
system.switch_cpus_1.iew.lsq.thread0.blockedLoads            0                       # Number of blocked loads due to partial load-store forwarding
system.switch_cpus_1.iew.lsq.thread0.rescheduledLoads            0                       # Number of loads that were rescheduled
system.switch_cpus_1.iew.lsq.thread0.cacheBlocked      6236645                       # Number of times an access to memory failed due to the cache being blocked
system.switch_cpus_1.iew.iewIdleCycles              0                       # Number of cycles IEW is idle
system.switch_cpus_1.iew.iewSquashCycles      3282254                       # Number of cycles IEW is squashing
system.switch_cpus_1.iew.iewBlockCycles      40976396                       # Number of cycles IEW is blocking
system.switch_cpus_1.iew.iewUnblockCycles     11600996                       # Number of cycles IEW is unblocking
system.switch_cpus_1.iew.iewDispatchedInsts    380741708                       # Number of instructions dispatched to IQ
system.switch_cpus_1.iew.iewDispSquashedInsts       966664                       # Number of squashed instructions skipped by dispatch
system.switch_cpus_1.iew.iewDispLoadInsts     92453624                       # Number of dispatched load instructions
system.switch_cpus_1.iew.iewDispStoreInsts     27422875                       # Number of dispatched store instructions
system.switch_cpus_1.iew.iewDispNonSpecInsts            0                       # Number of dispatched non-speculative instructions
system.switch_cpus_1.iew.iewIQFullEvents       214635                       # Number of times the IQ has become full, causing a stall
system.switch_cpus_1.iew.iewLSQFullEvents     11256673                       # Number of times the LSQ has become full, causing a stall
system.switch_cpus_1.iew.memOrderViolationEvents        12235                       # Number of memory order violations
system.switch_cpus_1.iew.predictedTakenIncorrect      1681374                       # Number of branches that were predicted taken incorrectly
system.switch_cpus_1.iew.predictedNotTakenIncorrect      1798743                       # Number of branches that were predicted not taken incorrectly
system.switch_cpus_1.iew.branchMispredicts      3480117                       # Number of branch mispredicts detected at execute
system.switch_cpus_1.iew.iewExecutedInsts    330460270                       # Number of executed instructions
system.switch_cpus_1.iew.iewExecLoadInsts     86852482                       # Number of load instructions executed
system.switch_cpus_1.iew.iewExecSquashedInsts      6264672                       # Number of squashed instructions skipped in execute
system.switch_cpus_1.iew.exec_swp                   0                       # number of swp insts executed
system.switch_cpus_1.iew.exec_nop              694815                       # number of nop insts executed
system.switch_cpus_1.iew.exec_refs          107698304                       # number of memory reference insts executed
system.switch_cpus_1.iew.exec_branches       38455580                       # Number of branches executed
system.switch_cpus_1.iew.exec_stores         20845822                       # Number of stores executed
system.switch_cpus_1.iew.exec_rate           1.583569                       # Inst execution rate
system.switch_cpus_1.iew.wb_sent            319922230                       # cumulative count of insts sent to commit
system.switch_cpus_1.iew.wb_count           316362819                       # cumulative count of insts written-back
system.switch_cpus_1.iew.wb_producers       205813127                       # num instructions producing a value
system.switch_cpus_1.iew.wb_consumers       270473527                       # num instructions consuming a value
system.switch_cpus_1.iew.wb_rate             1.516014                       # insts written-back per cycle
system.switch_cpus_1.iew.wb_fanout           0.760936                       # average fanout of values written-back
system.switch_cpus_1.commit.commitSquashedInsts    170955101                       # The number of squashed insts skipped by commit
system.switch_cpus_1.commit.branchMispredicts      2837511                       # The number of times a branch was mispredicted
system.switch_cpus_1.commit.committed_per_cycle::samples    184935821                       # Number of insts commited each cycle
system.switch_cpus_1.commit.committed_per_cycle::mean     1.084370                       # Number of insts commited each cycle
system.switch_cpus_1.commit.committed_per_cycle::stdev     2.288176                       # Number of insts commited each cycle
system.switch_cpus_1.commit.committed_per_cycle::underflows            0      0.00%      0.00% # Number of insts commited each cycle
system.switch_cpus_1.commit.committed_per_cycle::0    131055766     70.87%     70.87% # Number of insts commited each cycle
system.switch_cpus_1.commit.committed_per_cycle::1     17138301      9.27%     80.13% # Number of insts commited each cycle
system.switch_cpus_1.commit.committed_per_cycle::2     11057103      5.98%     86.11% # Number of insts commited each cycle
system.switch_cpus_1.commit.committed_per_cycle::3      4948145      2.68%     88.79% # Number of insts commited each cycle
system.switch_cpus_1.commit.committed_per_cycle::4      2519503      1.36%     90.15% # Number of insts commited each cycle
system.switch_cpus_1.commit.committed_per_cycle::5      1897933      1.03%     91.18% # Number of insts commited each cycle
system.switch_cpus_1.commit.committed_per_cycle::6      1414442      0.76%     91.94% # Number of insts commited each cycle
system.switch_cpus_1.commit.committed_per_cycle::7       849363      0.46%     92.40% # Number of insts commited each cycle
system.switch_cpus_1.commit.committed_per_cycle::8     14055265      7.60%    100.00% # Number of insts commited each cycle
system.switch_cpus_1.commit.committed_per_cycle::overflows            0      0.00%    100.00% # Number of insts commited each cycle
system.switch_cpus_1.commit.committed_per_cycle::min_value            0                       # Number of insts commited each cycle
system.switch_cpus_1.commit.committed_per_cycle::max_value            8                       # Number of insts commited each cycle
system.switch_cpus_1.commit.committed_per_cycle::total    184935821                       # Number of insts commited each cycle
system.switch_cpus_1.commit.committedInsts    200538932                       # Number of instructions committed
system.switch_cpus_1.commit.committedOps    200538932                       # Number of ops (including micro ops) committed
system.switch_cpus_1.commit.swp_count               0                       # Number of s/w prefetches committed
system.switch_cpus_1.commit.refs             63498195                       # Number of memory references committed
system.switch_cpus_1.commit.loads            49432720                       # Number of loads committed
system.switch_cpus_1.commit.membars                 0                       # Number of memory barriers committed
system.switch_cpus_1.commit.branches         24329166                       # Number of branches committed
system.switch_cpus_1.commit.fp_insts               91                       # Number of committed floating point instructions.
system.switch_cpus_1.commit.int_insts       197997126                       # Number of committed integer instructions.
system.switch_cpus_1.commit.function_calls       749984                       # Number of function calls committed.
system.switch_cpus_1.commit.op_class_0::No_OpClass       538941      0.27%      0.27% # Class of committed instruction
system.switch_cpus_1.commit.op_class_0::IntAlu    136501742     68.07%     68.34% # Class of committed instruction
system.switch_cpus_1.commit.op_class_0::IntMult            0      0.00%     68.34% # Class of committed instruction
system.switch_cpus_1.commit.op_class_0::IntDiv            0      0.00%     68.34% # Class of committed instruction
system.switch_cpus_1.commit.op_class_0::FloatAdd           30      0.00%     68.34% # Class of committed instruction
system.switch_cpus_1.commit.op_class_0::FloatCmp            0      0.00%     68.34% # Class of committed instruction
system.switch_cpus_1.commit.op_class_0::FloatCvt           18      0.00%     68.34% # Class of committed instruction
system.switch_cpus_1.commit.op_class_0::FloatMult            0      0.00%     68.34% # Class of committed instruction
system.switch_cpus_1.commit.op_class_0::FloatMultAcc            0      0.00%     68.34% # Class of committed instruction
system.switch_cpus_1.commit.op_class_0::FloatDiv            6      0.00%     68.34% # Class of committed instruction
system.switch_cpus_1.commit.op_class_0::FloatMisc            0      0.00%     68.34% # Class of committed instruction
system.switch_cpus_1.commit.op_class_0::FloatSqrt            0      0.00%     68.34% # Class of committed instruction
system.switch_cpus_1.commit.op_class_0::SimdAdd            0      0.00%     68.34% # Class of committed instruction
system.switch_cpus_1.commit.op_class_0::SimdAddAcc            0      0.00%     68.34% # Class of committed instruction
system.switch_cpus_1.commit.op_class_0::SimdAlu            0      0.00%     68.34% # Class of committed instruction
system.switch_cpus_1.commit.op_class_0::SimdCmp            0      0.00%     68.34% # Class of committed instruction
system.switch_cpus_1.commit.op_class_0::SimdCvt            0      0.00%     68.34% # Class of committed instruction
system.switch_cpus_1.commit.op_class_0::SimdMisc            0      0.00%     68.34% # Class of committed instruction
system.switch_cpus_1.commit.op_class_0::SimdMult            0      0.00%     68.34% # Class of committed instruction
system.switch_cpus_1.commit.op_class_0::SimdMultAcc            0      0.00%     68.34% # Class of committed instruction
system.switch_cpus_1.commit.op_class_0::SimdShift            0      0.00%     68.34% # Class of committed instruction
system.switch_cpus_1.commit.op_class_0::SimdShiftAcc            0      0.00%     68.34% # Class of committed instruction
system.switch_cpus_1.commit.op_class_0::SimdSqrt            0      0.00%     68.34% # Class of committed instruction
system.switch_cpus_1.commit.op_class_0::SimdFloatAdd            0      0.00%     68.34% # Class of committed instruction
system.switch_cpus_1.commit.op_class_0::SimdFloatAlu            0      0.00%     68.34% # Class of committed instruction
system.switch_cpus_1.commit.op_class_0::SimdFloatCmp            0      0.00%     68.34% # Class of committed instruction
system.switch_cpus_1.commit.op_class_0::SimdFloatCvt            0      0.00%     68.34% # Class of committed instruction
system.switch_cpus_1.commit.op_class_0::SimdFloatDiv            0      0.00%     68.34% # Class of committed instruction
system.switch_cpus_1.commit.op_class_0::SimdFloatMisc            0      0.00%     68.34% # Class of committed instruction
system.switch_cpus_1.commit.op_class_0::SimdFloatMult            0      0.00%     68.34% # Class of committed instruction
system.switch_cpus_1.commit.op_class_0::SimdFloatMultAcc            0      0.00%     68.34% # Class of committed instruction
system.switch_cpus_1.commit.op_class_0::SimdFloatSqrt            0      0.00%     68.34% # Class of committed instruction
system.switch_cpus_1.commit.op_class_0::MemRead     49432701     24.65%     92.99% # Class of committed instruction
system.switch_cpus_1.commit.op_class_0::MemWrite     14065457      7.01%    100.00% # Class of committed instruction
system.switch_cpus_1.commit.op_class_0::FloatMemRead           19      0.00%    100.00% # Class of committed instruction
system.switch_cpus_1.commit.op_class_0::FloatMemWrite           18      0.00%    100.00% # Class of committed instruction
system.switch_cpus_1.commit.op_class_0::IprAccess            0      0.00%    100.00% # Class of committed instruction
system.switch_cpus_1.commit.op_class_0::InstPrefetch            0      0.00%    100.00% # Class of committed instruction
system.switch_cpus_1.commit.op_class_0::total    200538932                       # Class of committed instruction
system.switch_cpus_1.commit.bw_lim_events     14055265                       # number cycles where commit BW limit reached
system.switch_cpus_1.rob.rob_reads          536718965                       # The number of ROB reads
system.switch_cpus_1.rob.rob_writes         766747087                       # The number of ROB writes
system.switch_cpus_1.timesIdled                   188                       # Number of times that the entire CPU went into an idle state and unscheduled itself
system.switch_cpus_1.idleCycles                 15575                       # Total number of cycles that the CPU has spent unscheduled due to idling
system.switch_cpus_1.committedInsts         200000003                       # Number of Instructions Simulated
system.switch_cpus_1.committedOps           200000003                       # Number of Ops (including micro ops) Simulated
system.switch_cpus_1.cpi                     1.043403                       # CPI: Cycles Per Instruction
system.switch_cpus_1.cpi_total               1.043403                       # CPI: Total CPI of All Threads
system.switch_cpus_1.ipc                     0.958402                       # IPC: Instructions Per Cycle
system.switch_cpus_1.ipc_total               0.958402                       # IPC: Total IPC of All Threads
system.switch_cpus_1.int_regfile_reads      449717455                       # number of integer regfile reads
system.switch_cpus_1.int_regfile_writes     260587517                       # number of integer regfile writes
system.switch_cpus_1.fp_regfile_reads              63                       # number of floating regfile reads
system.switch_cpus_1.fp_regfile_writes            103                       # number of floating regfile writes
system.switch_cpus_1.misc_regfile_reads            12                       # number of misc regfile reads
system.switch_cpus_1.misc_regfile_writes            6                       # number of misc regfile writes
system.tol3bus.snoop_filter.tot_requests     15148810                       # Total number of requests made to the snoop filter.
system.tol3bus.snoop_filter.hit_single_requests      7572256                       # Number of requests hitting in the snoop filter with a single holder of the requested data.
system.tol3bus.snoop_filter.hit_multi_requests            0                       # Number of requests hitting in the snoop filter with multiple (>1) holders of the requested data.
system.tol3bus.snoop_filter.tot_snoops            541                       # Total number of snoops made to the snoop filter.
system.tol3bus.snoop_filter.hit_single_snoops          541                       # Number of snoops hitting in the snoop filter with a single holder of the requested data.
system.tol3bus.snoop_filter.hit_multi_snoops            0                       # Number of snoops hitting in the snoop filter with multiple (>1) holders of the requested data.
system.tol3bus.pwrStateResidencyTicks::UNDEFINED 191292348574260                       # Cumulative time (in ticks) in various power states
system.tol3bus.trans_dist::ReadResp           5401147                       # Transaction distribution
system.tol3bus.trans_dist::WritebackDirty      4440356                       # Transaction distribution
system.tol3bus.trans_dist::CleanEvict         3807620                       # Transaction distribution
system.tol3bus.trans_dist::UpgradeReq               5                       # Transaction distribution
system.tol3bus.trans_dist::UpgradeResp              5                       # Transaction distribution
system.tol3bus.trans_dist::ReadExReq          2175407                       # Transaction distribution
system.tol3bus.trans_dist::ReadExResp         2175407                       # Transaction distribution
system.tol3bus.trans_dist::ReadSharedReq      5401147                       # Transaction distribution
system.tol3bus.pkt_count_system.cpu.l2.mem_side::system.l3.cpu_side     22725369                       # Packet count per connected master and slave (bytes)
system.tol3bus.pkt_size_system.cpu.l2.mem_side::system.l3.cpu_side    737542592                       # Cumulative packet size per connected master and slave (bytes)
system.tol3bus.snoops                          675725                       # Total snoops (count)
system.tol3bus.snoopTraffic                  31539648                       # Total snoop traffic (bytes)
system.tol3bus.snoop_fanout::samples          8252284                       # Request fanout histogram
system.tol3bus.snoop_fanout::mean            0.000066                       # Request fanout histogram
system.tol3bus.snoop_fanout::stdev           0.008097                       # Request fanout histogram
system.tol3bus.snoop_fanout::underflows             0      0.00%      0.00% # Request fanout histogram
system.tol3bus.snoop_fanout::0                8251743     99.99%     99.99% # Request fanout histogram
system.tol3bus.snoop_fanout::1                    541      0.01%    100.00% # Request fanout histogram
system.tol3bus.snoop_fanout::overflows              0      0.00%    100.00% # Request fanout histogram
system.tol3bus.snoop_fanout::min_value              0                       # Request fanout histogram
system.tol3bus.snoop_fanout::max_value              1                       # Request fanout histogram
system.tol3bus.snoop_fanout::total            8252284                       # Request fanout histogram
system.tol3bus.reqLayer0.occupancy         6359087547                       # Layer occupancy (ticks)
system.tol3bus.reqLayer0.utilization              0.5                       # Layer utilization (%)
system.tol3bus.respLayer0.occupancy        5045986629                       # Layer occupancy (ticks)
system.tol3bus.respLayer0.utilization             0.4                       # Layer utilization (%)

---------- End Simulation Statistics   ----------
