
---------- Begin Simulation Statistics ----------
sim_seconds                                  1.405068                       # Number of seconds simulated
sim_ticks                                1405067925267                       # Number of ticks simulated
final_tick                               734357508479253                       # Number of ticks from beginning of simulation (restored from checkpoints and never reset)
sim_freq                                 1000000000000                       # Frequency of simulated ticks
host_inst_rate                                 381392                       # Simulator instruction rate (inst/s)
host_op_rate                                   381392                       # Simulator op (including micro ops) rate (op/s)
host_tick_rate                              446567847                       # Simulator tick rate (ticks/s)
host_mem_usage                                2391016                       # Number of bytes of host memory used
host_seconds                                  3146.37                       # Real time elapsed on the host
sim_insts                                  1200000012                       # Number of instructions simulated
sim_ops                                    1200000012                       # Number of ops (including micro ops) simulated
system.voltage_domain.voltage                       1                       # Voltage in Volts
system.clk_domain.clock                          1000                       # Clock period in ticks
system.mem_ctrls0.pwrStateResidencyTicks::UNDEFINED 734357508479253                       # Cumulative time (in ticks) in various power states
system.mem_ctrls0.bytes_read::cpu.inst            128                       # Number of bytes read from this memory
system.mem_ctrls0.bytes_read::cpu.data            128                       # Number of bytes read from this memory
system.mem_ctrls0.bytes_read::switch_cpus.inst       202304                       # Number of bytes read from this memory
system.mem_ctrls0.bytes_read::switch_cpus.data     54491264                       # Number of bytes read from this memory
system.mem_ctrls0.bytes_read::switch_cpus_1.inst        46528                       # Number of bytes read from this memory
system.mem_ctrls0.bytes_read::switch_cpus_1.data     15148416                       # Number of bytes read from this memory
system.mem_ctrls0.bytes_read::total          69888768                       # Number of bytes read from this memory
system.mem_ctrls0.bytes_inst_read::cpu.inst          128                       # Number of instructions bytes read from this memory
system.mem_ctrls0.bytes_inst_read::switch_cpus.inst       202304                       # Number of instructions bytes read from this memory
system.mem_ctrls0.bytes_inst_read::switch_cpus_1.inst        46528                       # Number of instructions bytes read from this memory
system.mem_ctrls0.bytes_inst_read::total       248960                       # Number of instructions bytes read from this memory
system.mem_ctrls0.bytes_written::writebacks      5027264                       # Number of bytes written to this memory
system.mem_ctrls0.bytes_written::total        5027264                       # Number of bytes written to this memory
system.mem_ctrls0.num_reads::cpu.inst               2                       # Number of read requests responded to by this memory
system.mem_ctrls0.num_reads::cpu.data               2                       # Number of read requests responded to by this memory
system.mem_ctrls0.num_reads::switch_cpus.inst         3161                       # Number of read requests responded to by this memory
system.mem_ctrls0.num_reads::switch_cpus.data       851426                       # Number of read requests responded to by this memory
system.mem_ctrls0.num_reads::switch_cpus_1.inst          727                       # Number of read requests responded to by this memory
system.mem_ctrls0.num_reads::switch_cpus_1.data       236694                       # Number of read requests responded to by this memory
system.mem_ctrls0.num_reads::total            1092012                       # Number of read requests responded to by this memory
system.mem_ctrls0.num_writes::writebacks        78551                       # Number of write requests responded to by this memory
system.mem_ctrls0.num_writes::total             78551                       # Number of write requests responded to by this memory
system.mem_ctrls0.bw_read::cpu.inst                91                       # Total read bandwidth from this memory (bytes/s)
system.mem_ctrls0.bw_read::cpu.data                91                       # Total read bandwidth from this memory (bytes/s)
system.mem_ctrls0.bw_read::switch_cpus.inst       143982                       # Total read bandwidth from this memory (bytes/s)
system.mem_ctrls0.bw_read::switch_cpus.data     38781943                       # Total read bandwidth from this memory (bytes/s)
system.mem_ctrls0.bw_read::switch_cpus_1.inst        33114                       # Total read bandwidth from this memory (bytes/s)
system.mem_ctrls0.bw_read::switch_cpus_1.data     10781270                       # Total read bandwidth from this memory (bytes/s)
system.mem_ctrls0.bw_read::total             49740491                       # Total read bandwidth from this memory (bytes/s)
system.mem_ctrls0.bw_inst_read::cpu.inst           91                       # Instruction read bandwidth from this memory (bytes/s)
system.mem_ctrls0.bw_inst_read::switch_cpus.inst       143982                       # Instruction read bandwidth from this memory (bytes/s)
system.mem_ctrls0.bw_inst_read::switch_cpus_1.inst        33114                       # Instruction read bandwidth from this memory (bytes/s)
system.mem_ctrls0.bw_inst_read::total          177187                       # Instruction read bandwidth from this memory (bytes/s)
system.mem_ctrls0.bw_write::writebacks        3577951                       # Write bandwidth from this memory (bytes/s)
system.mem_ctrls0.bw_write::total             3577951                       # Write bandwidth from this memory (bytes/s)
system.mem_ctrls0.bw_total::writebacks        3577951                       # Total bandwidth to/from this memory (bytes/s)
system.mem_ctrls0.bw_total::cpu.inst               91                       # Total bandwidth to/from this memory (bytes/s)
system.mem_ctrls0.bw_total::cpu.data               91                       # Total bandwidth to/from this memory (bytes/s)
system.mem_ctrls0.bw_total::switch_cpus.inst       143982                       # Total bandwidth to/from this memory (bytes/s)
system.mem_ctrls0.bw_total::switch_cpus.data     38781943                       # Total bandwidth to/from this memory (bytes/s)
system.mem_ctrls0.bw_total::switch_cpus_1.inst        33114                       # Total bandwidth to/from this memory (bytes/s)
system.mem_ctrls0.bw_total::switch_cpus_1.data     10781270                       # Total bandwidth to/from this memory (bytes/s)
system.mem_ctrls0.bw_total::total            53318442                       # Total bandwidth to/from this memory (bytes/s)
system.mem_ctrls0.readReqs                    1092012                       # Number of read requests accepted
system.mem_ctrls0.writeReqs                     78551                       # Number of write requests accepted
system.mem_ctrls0.readBursts                  1092012                       # Number of DRAM read bursts, including those serviced by the write queue
system.mem_ctrls0.writeBursts                   78551                       # Number of DRAM write bursts, including those merged in the write queue
system.mem_ctrls0.bytesReadDRAM              69456512                       # Total number of bytes read from DRAM
system.mem_ctrls0.bytesReadWrQ                 432256                       # Total number of bytes read from write queue
system.mem_ctrls0.bytesWritten                5017536                       # Total number of bytes written to DRAM
system.mem_ctrls0.bytesReadSys               69888768                       # Total read bytes from the system interface side
system.mem_ctrls0.bytesWrittenSys             5027264                       # Total written bytes from the system interface side
system.mem_ctrls0.servicedByWrQ                  6754                       # Number of DRAM read bursts serviced by the write queue
system.mem_ctrls0.mergedWrBursts                  126                       # Number of DRAM write bursts merged with an existing one
system.mem_ctrls0.neitherReadNorWriteReqs            0                       # Number of requests that are neither read nor write
system.mem_ctrls0.perBankRdBursts::0            88409                       # Per bank write bursts
system.mem_ctrls0.perBankRdBursts::1            96901                       # Per bank write bursts
system.mem_ctrls0.perBankRdBursts::2            82673                       # Per bank write bursts
system.mem_ctrls0.perBankRdBursts::3            53083                       # Per bank write bursts
system.mem_ctrls0.perBankRdBursts::4            61668                       # Per bank write bursts
system.mem_ctrls0.perBankRdBursts::5            51193                       # Per bank write bursts
system.mem_ctrls0.perBankRdBursts::6            44056                       # Per bank write bursts
system.mem_ctrls0.perBankRdBursts::7            87452                       # Per bank write bursts
system.mem_ctrls0.perBankRdBursts::8            81165                       # Per bank write bursts
system.mem_ctrls0.perBankRdBursts::9            82544                       # Per bank write bursts
system.mem_ctrls0.perBankRdBursts::10           70102                       # Per bank write bursts
system.mem_ctrls0.perBankRdBursts::11           46146                       # Per bank write bursts
system.mem_ctrls0.perBankRdBursts::12           58763                       # Per bank write bursts
system.mem_ctrls0.perBankRdBursts::13           54210                       # Per bank write bursts
system.mem_ctrls0.perBankRdBursts::14           42971                       # Per bank write bursts
system.mem_ctrls0.perBankRdBursts::15           83922                       # Per bank write bursts
system.mem_ctrls0.perBankWrBursts::0             6837                       # Per bank write bursts
system.mem_ctrls0.perBankWrBursts::1             7703                       # Per bank write bursts
system.mem_ctrls0.perBankWrBursts::2             7278                       # Per bank write bursts
system.mem_ctrls0.perBankWrBursts::3             3959                       # Per bank write bursts
system.mem_ctrls0.perBankWrBursts::4             3392                       # Per bank write bursts
system.mem_ctrls0.perBankWrBursts::5             3095                       # Per bank write bursts
system.mem_ctrls0.perBankWrBursts::6             1624                       # Per bank write bursts
system.mem_ctrls0.perBankWrBursts::7             2173                       # Per bank write bursts
system.mem_ctrls0.perBankWrBursts::8             1796                       # Per bank write bursts
system.mem_ctrls0.perBankWrBursts::9             4355                       # Per bank write bursts
system.mem_ctrls0.perBankWrBursts::10            7060                       # Per bank write bursts
system.mem_ctrls0.perBankWrBursts::11            5055                       # Per bank write bursts
system.mem_ctrls0.perBankWrBursts::12            6540                       # Per bank write bursts
system.mem_ctrls0.perBankWrBursts::13            6294                       # Per bank write bursts
system.mem_ctrls0.perBankWrBursts::14            4717                       # Per bank write bursts
system.mem_ctrls0.perBankWrBursts::15            6521                       # Per bank write bursts
system.mem_ctrls0.numRdRetry                        0                       # Number of times read queue was full causing retry
system.mem_ctrls0.numWrRetry                        0                       # Number of times write queue was full causing retry
system.mem_ctrls0.totGap                 1405058876695                       # Total gap between requests
system.mem_ctrls0.readPktSize::0                    0                       # Read request sizes (log2)
system.mem_ctrls0.readPktSize::1                    0                       # Read request sizes (log2)
system.mem_ctrls0.readPktSize::2                    0                       # Read request sizes (log2)
system.mem_ctrls0.readPktSize::3                    0                       # Read request sizes (log2)
system.mem_ctrls0.readPktSize::4                    0                       # Read request sizes (log2)
system.mem_ctrls0.readPktSize::5                    0                       # Read request sizes (log2)
system.mem_ctrls0.readPktSize::6              1092012                       # Read request sizes (log2)
system.mem_ctrls0.writePktSize::0                   0                       # Write request sizes (log2)
system.mem_ctrls0.writePktSize::1                   0                       # Write request sizes (log2)
system.mem_ctrls0.writePktSize::2                   0                       # Write request sizes (log2)
system.mem_ctrls0.writePktSize::3                   0                       # Write request sizes (log2)
system.mem_ctrls0.writePktSize::4                   0                       # Write request sizes (log2)
system.mem_ctrls0.writePktSize::5                   0                       # Write request sizes (log2)
system.mem_ctrls0.writePktSize::6               78551                       # Write request sizes (log2)
system.mem_ctrls0.rdQLenPdf::0                1039873                       # What read queue length does an incoming req see
system.mem_ctrls0.rdQLenPdf::1                  41994                       # What read queue length does an incoming req see
system.mem_ctrls0.rdQLenPdf::2                   3143                       # What read queue length does an incoming req see
system.mem_ctrls0.rdQLenPdf::3                    248                       # What read queue length does an incoming req see
system.mem_ctrls0.rdQLenPdf::4                      0                       # What read queue length does an incoming req see
system.mem_ctrls0.rdQLenPdf::5                      0                       # What read queue length does an incoming req see
system.mem_ctrls0.rdQLenPdf::6                      0                       # What read queue length does an incoming req see
system.mem_ctrls0.rdQLenPdf::7                      0                       # What read queue length does an incoming req see
system.mem_ctrls0.rdQLenPdf::8                      0                       # What read queue length does an incoming req see
system.mem_ctrls0.rdQLenPdf::9                      0                       # What read queue length does an incoming req see
system.mem_ctrls0.rdQLenPdf::10                     0                       # What read queue length does an incoming req see
system.mem_ctrls0.rdQLenPdf::11                     0                       # What read queue length does an incoming req see
system.mem_ctrls0.rdQLenPdf::12                     0                       # What read queue length does an incoming req see
system.mem_ctrls0.rdQLenPdf::13                     0                       # What read queue length does an incoming req see
system.mem_ctrls0.rdQLenPdf::14                     0                       # What read queue length does an incoming req see
system.mem_ctrls0.rdQLenPdf::15                     0                       # What read queue length does an incoming req see
system.mem_ctrls0.rdQLenPdf::16                     0                       # What read queue length does an incoming req see
system.mem_ctrls0.rdQLenPdf::17                     0                       # What read queue length does an incoming req see
system.mem_ctrls0.rdQLenPdf::18                     0                       # What read queue length does an incoming req see
system.mem_ctrls0.rdQLenPdf::19                     0                       # What read queue length does an incoming req see
system.mem_ctrls0.rdQLenPdf::20                     0                       # What read queue length does an incoming req see
system.mem_ctrls0.rdQLenPdf::21                     0                       # What read queue length does an incoming req see
system.mem_ctrls0.rdQLenPdf::22                     0                       # What read queue length does an incoming req see
system.mem_ctrls0.rdQLenPdf::23                     0                       # What read queue length does an incoming req see
system.mem_ctrls0.rdQLenPdf::24                     0                       # What read queue length does an incoming req see
system.mem_ctrls0.rdQLenPdf::25                     0                       # What read queue length does an incoming req see
system.mem_ctrls0.rdQLenPdf::26                     0                       # What read queue length does an incoming req see
system.mem_ctrls0.rdQLenPdf::27                     0                       # What read queue length does an incoming req see
system.mem_ctrls0.rdQLenPdf::28                     0                       # What read queue length does an incoming req see
system.mem_ctrls0.rdQLenPdf::29                     0                       # What read queue length does an incoming req see
system.mem_ctrls0.rdQLenPdf::30                     0                       # What read queue length does an incoming req see
system.mem_ctrls0.rdQLenPdf::31                     0                       # What read queue length does an incoming req see
system.mem_ctrls0.wrQLenPdf::0                      2                       # What write queue length does an incoming req see
system.mem_ctrls0.wrQLenPdf::1                      2                       # What write queue length does an incoming req see
system.mem_ctrls0.wrQLenPdf::2                      2                       # What write queue length does an incoming req see
system.mem_ctrls0.wrQLenPdf::3                      2                       # What write queue length does an incoming req see
system.mem_ctrls0.wrQLenPdf::4                      2                       # What write queue length does an incoming req see
system.mem_ctrls0.wrQLenPdf::5                      2                       # What write queue length does an incoming req see
system.mem_ctrls0.wrQLenPdf::6                      2                       # What write queue length does an incoming req see
system.mem_ctrls0.wrQLenPdf::7                      2                       # What write queue length does an incoming req see
system.mem_ctrls0.wrQLenPdf::8                      2                       # What write queue length does an incoming req see
system.mem_ctrls0.wrQLenPdf::9                      2                       # What write queue length does an incoming req see
system.mem_ctrls0.wrQLenPdf::10                     2                       # What write queue length does an incoming req see
system.mem_ctrls0.wrQLenPdf::11                     2                       # What write queue length does an incoming req see
system.mem_ctrls0.wrQLenPdf::12                     2                       # What write queue length does an incoming req see
system.mem_ctrls0.wrQLenPdf::13                     2                       # What write queue length does an incoming req see
system.mem_ctrls0.wrQLenPdf::14                     2                       # What write queue length does an incoming req see
system.mem_ctrls0.wrQLenPdf::15                  3471                       # What write queue length does an incoming req see
system.mem_ctrls0.wrQLenPdf::16                  3526                       # What write queue length does an incoming req see
system.mem_ctrls0.wrQLenPdf::17                  4453                       # What write queue length does an incoming req see
system.mem_ctrls0.wrQLenPdf::18                  4462                       # What write queue length does an incoming req see
system.mem_ctrls0.wrQLenPdf::19                  4463                       # What write queue length does an incoming req see
system.mem_ctrls0.wrQLenPdf::20                  4464                       # What write queue length does an incoming req see
system.mem_ctrls0.wrQLenPdf::21                  4464                       # What write queue length does an incoming req see
system.mem_ctrls0.wrQLenPdf::22                  4462                       # What write queue length does an incoming req see
system.mem_ctrls0.wrQLenPdf::23                  4462                       # What write queue length does an incoming req see
system.mem_ctrls0.wrQLenPdf::24                  4461                       # What write queue length does an incoming req see
system.mem_ctrls0.wrQLenPdf::25                  4462                       # What write queue length does an incoming req see
system.mem_ctrls0.wrQLenPdf::26                  4462                       # What write queue length does an incoming req see
system.mem_ctrls0.wrQLenPdf::27                  4460                       # What write queue length does an incoming req see
system.mem_ctrls0.wrQLenPdf::28                  4467                       # What write queue length does an incoming req see
system.mem_ctrls0.wrQLenPdf::29                  4464                       # What write queue length does an incoming req see
system.mem_ctrls0.wrQLenPdf::30                  4471                       # What write queue length does an incoming req see
system.mem_ctrls0.wrQLenPdf::31                  4460                       # What write queue length does an incoming req see
system.mem_ctrls0.wrQLenPdf::32                  4461                       # What write queue length does an incoming req see
system.mem_ctrls0.wrQLenPdf::33                     0                       # What write queue length does an incoming req see
system.mem_ctrls0.wrQLenPdf::34                     0                       # What write queue length does an incoming req see
system.mem_ctrls0.wrQLenPdf::35                     0                       # What write queue length does an incoming req see
system.mem_ctrls0.wrQLenPdf::36                     0                       # What write queue length does an incoming req see
system.mem_ctrls0.wrQLenPdf::37                     0                       # What write queue length does an incoming req see
system.mem_ctrls0.wrQLenPdf::38                     0                       # What write queue length does an incoming req see
system.mem_ctrls0.wrQLenPdf::39                     0                       # What write queue length does an incoming req see
system.mem_ctrls0.wrQLenPdf::40                     0                       # What write queue length does an incoming req see
system.mem_ctrls0.wrQLenPdf::41                     0                       # What write queue length does an incoming req see
system.mem_ctrls0.wrQLenPdf::42                     0                       # What write queue length does an incoming req see
system.mem_ctrls0.wrQLenPdf::43                     0                       # What write queue length does an incoming req see
system.mem_ctrls0.wrQLenPdf::44                     0                       # What write queue length does an incoming req see
system.mem_ctrls0.wrQLenPdf::45                     0                       # What write queue length does an incoming req see
system.mem_ctrls0.wrQLenPdf::46                     0                       # What write queue length does an incoming req see
system.mem_ctrls0.wrQLenPdf::47                     0                       # What write queue length does an incoming req see
system.mem_ctrls0.wrQLenPdf::48                     0                       # What write queue length does an incoming req see
system.mem_ctrls0.wrQLenPdf::49                     0                       # What write queue length does an incoming req see
system.mem_ctrls0.wrQLenPdf::50                     0                       # What write queue length does an incoming req see
system.mem_ctrls0.wrQLenPdf::51                     0                       # What write queue length does an incoming req see
system.mem_ctrls0.wrQLenPdf::52                     0                       # What write queue length does an incoming req see
system.mem_ctrls0.wrQLenPdf::53                     0                       # What write queue length does an incoming req see
system.mem_ctrls0.wrQLenPdf::54                     0                       # What write queue length does an incoming req see
system.mem_ctrls0.wrQLenPdf::55                     0                       # What write queue length does an incoming req see
system.mem_ctrls0.wrQLenPdf::56                     0                       # What write queue length does an incoming req see
system.mem_ctrls0.wrQLenPdf::57                     0                       # What write queue length does an incoming req see
system.mem_ctrls0.wrQLenPdf::58                     0                       # What write queue length does an incoming req see
system.mem_ctrls0.wrQLenPdf::59                     0                       # What write queue length does an incoming req see
system.mem_ctrls0.wrQLenPdf::60                     0                       # What write queue length does an incoming req see
system.mem_ctrls0.wrQLenPdf::61                     0                       # What write queue length does an incoming req see
system.mem_ctrls0.wrQLenPdf::62                     0                       # What write queue length does an incoming req see
system.mem_ctrls0.wrQLenPdf::63                     0                       # What write queue length does an incoming req see
system.mem_ctrls0.bytesPerActivate::samples       441836                       # Bytes accessed per row activation
system.mem_ctrls0.bytesPerActivate::mean   168.555862                       # Bytes accessed per row activation
system.mem_ctrls0.bytesPerActivate::gmean   119.850450                       # Bytes accessed per row activation
system.mem_ctrls0.bytesPerActivate::stdev   169.253106                       # Bytes accessed per row activation
system.mem_ctrls0.bytesPerActivate::0-127       230609     52.19%     52.19% # Bytes accessed per row activation
system.mem_ctrls0.bytesPerActivate::128-255       106397     24.08%     76.27% # Bytes accessed per row activation
system.mem_ctrls0.bytesPerActivate::256-383        47694     10.79%     87.07% # Bytes accessed per row activation
system.mem_ctrls0.bytesPerActivate::384-511        30456      6.89%     93.96% # Bytes accessed per row activation
system.mem_ctrls0.bytesPerActivate::512-639        15727      3.56%     97.52% # Bytes accessed per row activation
system.mem_ctrls0.bytesPerActivate::640-767         3880      0.88%     98.40% # Bytes accessed per row activation
system.mem_ctrls0.bytesPerActivate::768-895         1546      0.35%     98.75% # Bytes accessed per row activation
system.mem_ctrls0.bytesPerActivate::896-1023         1397      0.32%     99.07% # Bytes accessed per row activation
system.mem_ctrls0.bytesPerActivate::1024-1151         4130      0.93%    100.00% # Bytes accessed per row activation
system.mem_ctrls0.bytesPerActivate::total       441836                       # Bytes accessed per row activation
system.mem_ctrls0.rdPerTurnAround::samples         4461                       # Reads before turning the bus around for writes
system.mem_ctrls0.rdPerTurnAround::mean    243.059180                       # Reads before turning the bus around for writes
system.mem_ctrls0.rdPerTurnAround::gmean   173.174993                       # Reads before turning the bus around for writes
system.mem_ctrls0.rdPerTurnAround::stdev   504.380630                       # Reads before turning the bus around for writes
system.mem_ctrls0.rdPerTurnAround::0-1023         4355     97.62%     97.62% # Reads before turning the bus around for writes
system.mem_ctrls0.rdPerTurnAround::1024-2047           99      2.22%     99.84% # Reads before turning the bus around for writes
system.mem_ctrls0.rdPerTurnAround::2048-3071            6      0.13%     99.98% # Reads before turning the bus around for writes
system.mem_ctrls0.rdPerTurnAround::29696-30719            1      0.02%    100.00% # Reads before turning the bus around for writes
system.mem_ctrls0.rdPerTurnAround::total         4461                       # Reads before turning the bus around for writes
system.mem_ctrls0.wrPerTurnAround::samples         4461                       # Writes before turning the bus around for reads
system.mem_ctrls0.wrPerTurnAround::mean     17.574311                       # Writes before turning the bus around for reads
system.mem_ctrls0.wrPerTurnAround::gmean    17.554213                       # Writes before turning the bus around for reads
system.mem_ctrls0.wrPerTurnAround::stdev     0.822418                       # Writes before turning the bus around for reads
system.mem_ctrls0.wrPerTurnAround::16             937     21.00%     21.00% # Writes before turning the bus around for reads
system.mem_ctrls0.wrPerTurnAround::17              51      1.14%     22.15% # Writes before turning the bus around for reads
system.mem_ctrls0.wrPerTurnAround::18            3447     77.27%     99.42% # Writes before turning the bus around for reads
system.mem_ctrls0.wrPerTurnAround::19              26      0.58%    100.00% # Writes before turning the bus around for reads
system.mem_ctrls0.wrPerTurnAround::total         4461                       # Writes before turning the bus around for reads
system.mem_ctrls0.totQLat                 36128704748                       # Total ticks spent queuing
system.mem_ctrls0.totMemAccLat            56477292248                       # Total ticks spent from burst creation until serviced by the DRAM
system.mem_ctrls0.totBusLat                5426290000                       # Total ticks spent in databus transfers
system.mem_ctrls0.avgQLat                    33290.43                       # Average queueing delay per DRAM burst
system.mem_ctrls0.avgBusLat                   5000.00                       # Average bus latency per DRAM burst
system.mem_ctrls0.avgMemAccLat               52040.43                       # Average memory access latency per DRAM burst
system.mem_ctrls0.avgRdBW                       49.43                       # Average DRAM read bandwidth in MiByte/s
system.mem_ctrls0.avgWrBW                        3.57                       # Average achieved write bandwidth in MiByte/s
system.mem_ctrls0.avgRdBWSys                    49.74                       # Average system read bandwidth in MiByte/s
system.mem_ctrls0.avgWrBWSys                     3.58                       # Average system write bandwidth in MiByte/s
system.mem_ctrls0.peakBW                     12800.00                       # Theoretical peak bandwidth in MiByte/s
system.mem_ctrls0.busUtil                        0.41                       # Data bus utilization in percentage
system.mem_ctrls0.busUtilRead                    0.39                       # Data bus utilization in percentage for reads
system.mem_ctrls0.busUtilWrite                   0.03                       # Data bus utilization in percentage for writes
system.mem_ctrls0.avgRdQLen                      1.01                       # Average read queue length when enqueuing
system.mem_ctrls0.avgWrQLen                     24.50                       # Average write queue length when enqueuing
system.mem_ctrls0.readRowHits                  682214                       # Number of row buffer hits during reads
system.mem_ctrls0.writeRowHits                  39607                       # Number of row buffer hits during writes
system.mem_ctrls0.readRowHitRate                62.86                       # Row buffer hit rate for reads
system.mem_ctrls0.writeRowHitRate               50.50                       # Row buffer hit rate for writes
system.mem_ctrls0.avgGap                   1200327.43                       # Average gap between requests
system.mem_ctrls0.pageHitRate                   62.03                       # Row buffer hit rate, read and write combined
system.mem_ctrls0_0.actEnergy              1697670660                       # Energy for activate commands per rank (pJ)
system.mem_ctrls0_0.preEnergy               902333355                       # Energy for precharge commands per rank (pJ)
system.mem_ctrls0_0.readEnergy             4037205900                       # Energy for read commands per rank (pJ)
system.mem_ctrls0_0.writeEnergy             188238420                       # Energy for write commands per rank (pJ)
system.mem_ctrls0_0.refreshEnergy        81087611280.000015                       # Energy for refresh commands per rank (pJ)
system.mem_ctrls0_0.actBackEnergy         25153786500                       # Energy for active background per rank (pJ)
system.mem_ctrls0_0.preBackEnergy          3304703040                       # Energy for precharge background per rank (pJ)
system.mem_ctrls0_0.actPowerDownEnergy   264769601040                       # Energy for active power-down per rank (pJ)
system.mem_ctrls0_0.prePowerDownEnergy    97110303360                       # Energy for precharge power-down per rank (pJ)
system.mem_ctrls0_0.selfRefreshEnergy    131769692295                       # Energy for self refresh per rank (pJ)
system.mem_ctrls0_0.totalEnergy          610052907660                       # Total energy per rank (pJ)
system.mem_ctrls0_0.averagePower           434.180364                       # Core power per rank (mW)
system.mem_ctrls0_0.totalIdleTime        1341220990353                       # Total Idle time Per DRAM Rank
system.mem_ctrls0_0.memoryStateTime::IDLE   5356474070                       # Time in different power states
system.mem_ctrls0_0.memoryStateTime::REF  34411570000                       # Time in different power states
system.mem_ctrls0_0.memoryStateTime::SREF 507703033017                       # Time in different power states
system.mem_ctrls0_0.memoryStateTime::PRE_PDN 252891418262                       # Time in different power states
system.mem_ctrls0_0.memoryStateTime::ACT  24070316096                       # Time in different power states
system.mem_ctrls0_0.memoryStateTime::ACT_PDN 580635113822                       # Time in different power states
system.mem_ctrls0_1.actEnergy              1457038380                       # Energy for activate commands per rank (pJ)
system.mem_ctrls0_1.preEnergy               774434265                       # Energy for precharge commands per rank (pJ)
system.mem_ctrls0_1.readEnergy             3711536220                       # Energy for read commands per rank (pJ)
system.mem_ctrls0_1.writeEnergy             221004360                       # Energy for write commands per rank (pJ)
system.mem_ctrls0_1.refreshEnergy        76239330960.000015                       # Energy for refresh commands per rank (pJ)
system.mem_ctrls0_1.actBackEnergy         24299061240                       # Energy for active background per rank (pJ)
system.mem_ctrls0_1.preBackEnergy          3160863360                       # Energy for precharge background per rank (pJ)
system.mem_ctrls0_1.actPowerDownEnergy   244803378270                       # Energy for active power-down per rank (pJ)
system.mem_ctrls0_1.prePowerDownEnergy    92064332640                       # Energy for precharge power-down per rank (pJ)
system.mem_ctrls0_1.selfRefreshEnergy    145800898050                       # Energy for self refresh per rank (pJ)
system.mem_ctrls0_1.totalEnergy          592560375795                       # Total energy per rank (pJ)
system.mem_ctrls0_1.averagePower           421.730765                       # Core power per rank (mW)
system.mem_ctrls0_1.totalIdleTime        1343483146221                       # Total Idle time Per DRAM Rank
system.mem_ctrls0_1.memoryStateTime::IDLE   5189065293                       # Time in different power states
system.mem_ctrls0_1.memoryStateTime::REF  32358674000                       # Time in different power states
system.mem_ctrls0_1.memoryStateTime::SREF 566885188308                       # Time in different power states
system.mem_ctrls0_1.memoryStateTime::PRE_PDN 239751066092                       # Time in different power states
system.mem_ctrls0_1.memoryStateTime::ACT  24034345794                       # Time in different power states
system.mem_ctrls0_1.memoryStateTime::ACT_PDN 536849585780                       # Time in different power states
system.mem_ctrls1.pwrStateResidencyTicks::UNDEFINED 734357508479253                       # Cumulative time (in ticks) in various power states
system.mem_ctrls1.bytes_read::cpu.inst             64                       # Number of bytes read from this memory
system.mem_ctrls1.bytes_read::cpu.data            192                       # Number of bytes read from this memory
system.mem_ctrls1.bytes_read::switch_cpus.inst       193408                       # Number of bytes read from this memory
system.mem_ctrls1.bytes_read::switch_cpus.data     54366592                       # Number of bytes read from this memory
system.mem_ctrls1.bytes_read::switch_cpus_1.inst        45568                       # Number of bytes read from this memory
system.mem_ctrls1.bytes_read::switch_cpus_1.data     15147712                       # Number of bytes read from this memory
system.mem_ctrls1.bytes_read::total          69753536                       # Number of bytes read from this memory
system.mem_ctrls1.bytes_inst_read::cpu.inst           64                       # Number of instructions bytes read from this memory
system.mem_ctrls1.bytes_inst_read::switch_cpus.inst       193408                       # Number of instructions bytes read from this memory
system.mem_ctrls1.bytes_inst_read::switch_cpus_1.inst        45568                       # Number of instructions bytes read from this memory
system.mem_ctrls1.bytes_inst_read::total       239040                       # Number of instructions bytes read from this memory
system.mem_ctrls1.bytes_written::writebacks      4998016                       # Number of bytes written to this memory
system.mem_ctrls1.bytes_written::total        4998016                       # Number of bytes written to this memory
system.mem_ctrls1.num_reads::cpu.inst               1                       # Number of read requests responded to by this memory
system.mem_ctrls1.num_reads::cpu.data               3                       # Number of read requests responded to by this memory
system.mem_ctrls1.num_reads::switch_cpus.inst         3022                       # Number of read requests responded to by this memory
system.mem_ctrls1.num_reads::switch_cpus.data       849478                       # Number of read requests responded to by this memory
system.mem_ctrls1.num_reads::switch_cpus_1.inst          712                       # Number of read requests responded to by this memory
system.mem_ctrls1.num_reads::switch_cpus_1.data       236683                       # Number of read requests responded to by this memory
system.mem_ctrls1.num_reads::total            1089899                       # Number of read requests responded to by this memory
system.mem_ctrls1.num_writes::writebacks        78094                       # Number of write requests responded to by this memory
system.mem_ctrls1.num_writes::total             78094                       # Number of write requests responded to by this memory
system.mem_ctrls1.bw_read::cpu.inst                46                       # Total read bandwidth from this memory (bytes/s)
system.mem_ctrls1.bw_read::cpu.data               137                       # Total read bandwidth from this memory (bytes/s)
system.mem_ctrls1.bw_read::switch_cpus.inst       137650                       # Total read bandwidth from this memory (bytes/s)
system.mem_ctrls1.bw_read::switch_cpus.data     38693213                       # Total read bandwidth from this memory (bytes/s)
system.mem_ctrls1.bw_read::switch_cpus_1.inst        32431                       # Total read bandwidth from this memory (bytes/s)
system.mem_ctrls1.bw_read::switch_cpus_1.data     10780768                       # Total read bandwidth from this memory (bytes/s)
system.mem_ctrls1.bw_read::total             49644245                       # Total read bandwidth from this memory (bytes/s)
system.mem_ctrls1.bw_inst_read::cpu.inst           46                       # Instruction read bandwidth from this memory (bytes/s)
system.mem_ctrls1.bw_inst_read::switch_cpus.inst       137650                       # Instruction read bandwidth from this memory (bytes/s)
system.mem_ctrls1.bw_inst_read::switch_cpus_1.inst        32431                       # Instruction read bandwidth from this memory (bytes/s)
system.mem_ctrls1.bw_inst_read::total          170127                       # Instruction read bandwidth from this memory (bytes/s)
system.mem_ctrls1.bw_write::writebacks        3557135                       # Write bandwidth from this memory (bytes/s)
system.mem_ctrls1.bw_write::total             3557135                       # Write bandwidth from this memory (bytes/s)
system.mem_ctrls1.bw_total::writebacks        3557135                       # Total bandwidth to/from this memory (bytes/s)
system.mem_ctrls1.bw_total::cpu.inst               46                       # Total bandwidth to/from this memory (bytes/s)
system.mem_ctrls1.bw_total::cpu.data              137                       # Total bandwidth to/from this memory (bytes/s)
system.mem_ctrls1.bw_total::switch_cpus.inst       137650                       # Total bandwidth to/from this memory (bytes/s)
system.mem_ctrls1.bw_total::switch_cpus.data     38693213                       # Total bandwidth to/from this memory (bytes/s)
system.mem_ctrls1.bw_total::switch_cpus_1.inst        32431                       # Total bandwidth to/from this memory (bytes/s)
system.mem_ctrls1.bw_total::switch_cpus_1.data     10780768                       # Total bandwidth to/from this memory (bytes/s)
system.mem_ctrls1.bw_total::total            53201380                       # Total bandwidth to/from this memory (bytes/s)
system.mem_ctrls1.readReqs                    1089899                       # Number of read requests accepted
system.mem_ctrls1.writeReqs                     78094                       # Number of write requests accepted
system.mem_ctrls1.readBursts                  1089899                       # Number of DRAM read bursts, including those serviced by the write queue
system.mem_ctrls1.writeBursts                   78094                       # Number of DRAM write bursts, including those merged in the write queue
system.mem_ctrls1.bytesReadDRAM              69332224                       # Total number of bytes read from DRAM
system.mem_ctrls1.bytesReadWrQ                 421312                       # Total number of bytes read from write queue
system.mem_ctrls1.bytesWritten                4985088                       # Total number of bytes written to DRAM
system.mem_ctrls1.bytesReadSys               69753536                       # Total read bytes from the system interface side
system.mem_ctrls1.bytesWrittenSys             4998016                       # Total written bytes from the system interface side
system.mem_ctrls1.servicedByWrQ                  6583                       # Number of DRAM read bursts serviced by the write queue
system.mem_ctrls1.mergedWrBursts                  175                       # Number of DRAM write bursts merged with an existing one
system.mem_ctrls1.neitherReadNorWriteReqs            0                       # Number of requests that are neither read nor write
system.mem_ctrls1.perBankRdBursts::0            88459                       # Per bank write bursts
system.mem_ctrls1.perBankRdBursts::1            96330                       # Per bank write bursts
system.mem_ctrls1.perBankRdBursts::2            82600                       # Per bank write bursts
system.mem_ctrls1.perBankRdBursts::3            53804                       # Per bank write bursts
system.mem_ctrls1.perBankRdBursts::4            61839                       # Per bank write bursts
system.mem_ctrls1.perBankRdBursts::5            50443                       # Per bank write bursts
system.mem_ctrls1.perBankRdBursts::6            43948                       # Per bank write bursts
system.mem_ctrls1.perBankRdBursts::7            87278                       # Per bank write bursts
system.mem_ctrls1.perBankRdBursts::8            80341                       # Per bank write bursts
system.mem_ctrls1.perBankRdBursts::9            82009                       # Per bank write bursts
system.mem_ctrls1.perBankRdBursts::10           69915                       # Per bank write bursts
system.mem_ctrls1.perBankRdBursts::11           46808                       # Per bank write bursts
system.mem_ctrls1.perBankRdBursts::12           59419                       # Per bank write bursts
system.mem_ctrls1.perBankRdBursts::13           54182                       # Per bank write bursts
system.mem_ctrls1.perBankRdBursts::14           43062                       # Per bank write bursts
system.mem_ctrls1.perBankRdBursts::15           82879                       # Per bank write bursts
system.mem_ctrls1.perBankWrBursts::0             6877                       # Per bank write bursts
system.mem_ctrls1.perBankWrBursts::1             7432                       # Per bank write bursts
system.mem_ctrls1.perBankWrBursts::2             6938                       # Per bank write bursts
system.mem_ctrls1.perBankWrBursts::3             3761                       # Per bank write bursts
system.mem_ctrls1.perBankWrBursts::4             3304                       # Per bank write bursts
system.mem_ctrls1.perBankWrBursts::5             3222                       # Per bank write bursts
system.mem_ctrls1.perBankWrBursts::6             1569                       # Per bank write bursts
system.mem_ctrls1.perBankWrBursts::7             2127                       # Per bank write bursts
system.mem_ctrls1.perBankWrBursts::8             1715                       # Per bank write bursts
system.mem_ctrls1.perBankWrBursts::9             4662                       # Per bank write bursts
system.mem_ctrls1.perBankWrBursts::10            7119                       # Per bank write bursts
system.mem_ctrls1.perBankWrBursts::11            4989                       # Per bank write bursts
system.mem_ctrls1.perBankWrBursts::12            6505                       # Per bank write bursts
system.mem_ctrls1.perBankWrBursts::13            6147                       # Per bank write bursts
system.mem_ctrls1.perBankWrBursts::14            4836                       # Per bank write bursts
system.mem_ctrls1.perBankWrBursts::15            6689                       # Per bank write bursts
system.mem_ctrls1.numRdRetry                        0                       # Number of times read queue was full causing retry
system.mem_ctrls1.numWrRetry                        0                       # Number of times write queue was full causing retry
system.mem_ctrls1.totGap                 1405014272973                       # Total gap between requests
system.mem_ctrls1.readPktSize::0                    0                       # Read request sizes (log2)
system.mem_ctrls1.readPktSize::1                    0                       # Read request sizes (log2)
system.mem_ctrls1.readPktSize::2                    0                       # Read request sizes (log2)
system.mem_ctrls1.readPktSize::3                    0                       # Read request sizes (log2)
system.mem_ctrls1.readPktSize::4                    0                       # Read request sizes (log2)
system.mem_ctrls1.readPktSize::5                    0                       # Read request sizes (log2)
system.mem_ctrls1.readPktSize::6              1089899                       # Read request sizes (log2)
system.mem_ctrls1.writePktSize::0                   0                       # Write request sizes (log2)
system.mem_ctrls1.writePktSize::1                   0                       # Write request sizes (log2)
system.mem_ctrls1.writePktSize::2                   0                       # Write request sizes (log2)
system.mem_ctrls1.writePktSize::3                   0                       # Write request sizes (log2)
system.mem_ctrls1.writePktSize::4                   0                       # Write request sizes (log2)
system.mem_ctrls1.writePktSize::5                   0                       # Write request sizes (log2)
system.mem_ctrls1.writePktSize::6               78094                       # Write request sizes (log2)
system.mem_ctrls1.rdQLenPdf::0                1037718                       # What read queue length does an incoming req see
system.mem_ctrls1.rdQLenPdf::1                  42265                       # What read queue length does an incoming req see
system.mem_ctrls1.rdQLenPdf::2                   3101                       # What read queue length does an incoming req see
system.mem_ctrls1.rdQLenPdf::3                    232                       # What read queue length does an incoming req see
system.mem_ctrls1.rdQLenPdf::4                      0                       # What read queue length does an incoming req see
system.mem_ctrls1.rdQLenPdf::5                      0                       # What read queue length does an incoming req see
system.mem_ctrls1.rdQLenPdf::6                      0                       # What read queue length does an incoming req see
system.mem_ctrls1.rdQLenPdf::7                      0                       # What read queue length does an incoming req see
system.mem_ctrls1.rdQLenPdf::8                      0                       # What read queue length does an incoming req see
system.mem_ctrls1.rdQLenPdf::9                      0                       # What read queue length does an incoming req see
system.mem_ctrls1.rdQLenPdf::10                     0                       # What read queue length does an incoming req see
system.mem_ctrls1.rdQLenPdf::11                     0                       # What read queue length does an incoming req see
system.mem_ctrls1.rdQLenPdf::12                     0                       # What read queue length does an incoming req see
system.mem_ctrls1.rdQLenPdf::13                     0                       # What read queue length does an incoming req see
system.mem_ctrls1.rdQLenPdf::14                     0                       # What read queue length does an incoming req see
system.mem_ctrls1.rdQLenPdf::15                     0                       # What read queue length does an incoming req see
system.mem_ctrls1.rdQLenPdf::16                     0                       # What read queue length does an incoming req see
system.mem_ctrls1.rdQLenPdf::17                     0                       # What read queue length does an incoming req see
system.mem_ctrls1.rdQLenPdf::18                     0                       # What read queue length does an incoming req see
system.mem_ctrls1.rdQLenPdf::19                     0                       # What read queue length does an incoming req see
system.mem_ctrls1.rdQLenPdf::20                     0                       # What read queue length does an incoming req see
system.mem_ctrls1.rdQLenPdf::21                     0                       # What read queue length does an incoming req see
system.mem_ctrls1.rdQLenPdf::22                     0                       # What read queue length does an incoming req see
system.mem_ctrls1.rdQLenPdf::23                     0                       # What read queue length does an incoming req see
system.mem_ctrls1.rdQLenPdf::24                     0                       # What read queue length does an incoming req see
system.mem_ctrls1.rdQLenPdf::25                     0                       # What read queue length does an incoming req see
system.mem_ctrls1.rdQLenPdf::26                     0                       # What read queue length does an incoming req see
system.mem_ctrls1.rdQLenPdf::27                     0                       # What read queue length does an incoming req see
system.mem_ctrls1.rdQLenPdf::28                     0                       # What read queue length does an incoming req see
system.mem_ctrls1.rdQLenPdf::29                     0                       # What read queue length does an incoming req see
system.mem_ctrls1.rdQLenPdf::30                     0                       # What read queue length does an incoming req see
system.mem_ctrls1.rdQLenPdf::31                     0                       # What read queue length does an incoming req see
system.mem_ctrls1.wrQLenPdf::0                      2                       # What write queue length does an incoming req see
system.mem_ctrls1.wrQLenPdf::1                      2                       # What write queue length does an incoming req see
system.mem_ctrls1.wrQLenPdf::2                      2                       # What write queue length does an incoming req see
system.mem_ctrls1.wrQLenPdf::3                      2                       # What write queue length does an incoming req see
system.mem_ctrls1.wrQLenPdf::4                      2                       # What write queue length does an incoming req see
system.mem_ctrls1.wrQLenPdf::5                      2                       # What write queue length does an incoming req see
system.mem_ctrls1.wrQLenPdf::6                      2                       # What write queue length does an incoming req see
system.mem_ctrls1.wrQLenPdf::7                      2                       # What write queue length does an incoming req see
system.mem_ctrls1.wrQLenPdf::8                      2                       # What write queue length does an incoming req see
system.mem_ctrls1.wrQLenPdf::9                      2                       # What write queue length does an incoming req see
system.mem_ctrls1.wrQLenPdf::10                     2                       # What write queue length does an incoming req see
system.mem_ctrls1.wrQLenPdf::11                     2                       # What write queue length does an incoming req see
system.mem_ctrls1.wrQLenPdf::12                     2                       # What write queue length does an incoming req see
system.mem_ctrls1.wrQLenPdf::13                     2                       # What write queue length does an incoming req see
system.mem_ctrls1.wrQLenPdf::14                     2                       # What write queue length does an incoming req see
system.mem_ctrls1.wrQLenPdf::15                  3467                       # What write queue length does an incoming req see
system.mem_ctrls1.wrQLenPdf::16                  3515                       # What write queue length does an incoming req see
system.mem_ctrls1.wrQLenPdf::17                  4413                       # What write queue length does an incoming req see
system.mem_ctrls1.wrQLenPdf::18                  4432                       # What write queue length does an incoming req see
system.mem_ctrls1.wrQLenPdf::19                  4431                       # What write queue length does an incoming req see
system.mem_ctrls1.wrQLenPdf::20                  4433                       # What write queue length does an incoming req see
system.mem_ctrls1.wrQLenPdf::21                  4431                       # What write queue length does an incoming req see
system.mem_ctrls1.wrQLenPdf::22                  4435                       # What write queue length does an incoming req see
system.mem_ctrls1.wrQLenPdf::23                  4431                       # What write queue length does an incoming req see
system.mem_ctrls1.wrQLenPdf::24                  4430                       # What write queue length does an incoming req see
system.mem_ctrls1.wrQLenPdf::25                  4435                       # What write queue length does an incoming req see
system.mem_ctrls1.wrQLenPdf::26                  4431                       # What write queue length does an incoming req see
system.mem_ctrls1.wrQLenPdf::27                  4430                       # What write queue length does an incoming req see
system.mem_ctrls1.wrQLenPdf::28                  4436                       # What write queue length does an incoming req see
system.mem_ctrls1.wrQLenPdf::29                  4433                       # What write queue length does an incoming req see
system.mem_ctrls1.wrQLenPdf::30                  4447                       # What write queue length does an incoming req see
system.mem_ctrls1.wrQLenPdf::31                  4429                       # What write queue length does an incoming req see
system.mem_ctrls1.wrQLenPdf::32                  4429                       # What write queue length does an incoming req see
system.mem_ctrls1.wrQLenPdf::33                     1                       # What write queue length does an incoming req see
system.mem_ctrls1.wrQLenPdf::34                     0                       # What write queue length does an incoming req see
system.mem_ctrls1.wrQLenPdf::35                     0                       # What write queue length does an incoming req see
system.mem_ctrls1.wrQLenPdf::36                     0                       # What write queue length does an incoming req see
system.mem_ctrls1.wrQLenPdf::37                     0                       # What write queue length does an incoming req see
system.mem_ctrls1.wrQLenPdf::38                     0                       # What write queue length does an incoming req see
system.mem_ctrls1.wrQLenPdf::39                     0                       # What write queue length does an incoming req see
system.mem_ctrls1.wrQLenPdf::40                     0                       # What write queue length does an incoming req see
system.mem_ctrls1.wrQLenPdf::41                     0                       # What write queue length does an incoming req see
system.mem_ctrls1.wrQLenPdf::42                     0                       # What write queue length does an incoming req see
system.mem_ctrls1.wrQLenPdf::43                     0                       # What write queue length does an incoming req see
system.mem_ctrls1.wrQLenPdf::44                     0                       # What write queue length does an incoming req see
system.mem_ctrls1.wrQLenPdf::45                     0                       # What write queue length does an incoming req see
system.mem_ctrls1.wrQLenPdf::46                     0                       # What write queue length does an incoming req see
system.mem_ctrls1.wrQLenPdf::47                     0                       # What write queue length does an incoming req see
system.mem_ctrls1.wrQLenPdf::48                     0                       # What write queue length does an incoming req see
system.mem_ctrls1.wrQLenPdf::49                     0                       # What write queue length does an incoming req see
system.mem_ctrls1.wrQLenPdf::50                     0                       # What write queue length does an incoming req see
system.mem_ctrls1.wrQLenPdf::51                     0                       # What write queue length does an incoming req see
system.mem_ctrls1.wrQLenPdf::52                     0                       # What write queue length does an incoming req see
system.mem_ctrls1.wrQLenPdf::53                     0                       # What write queue length does an incoming req see
system.mem_ctrls1.wrQLenPdf::54                     0                       # What write queue length does an incoming req see
system.mem_ctrls1.wrQLenPdf::55                     0                       # What write queue length does an incoming req see
system.mem_ctrls1.wrQLenPdf::56                     0                       # What write queue length does an incoming req see
system.mem_ctrls1.wrQLenPdf::57                     0                       # What write queue length does an incoming req see
system.mem_ctrls1.wrQLenPdf::58                     0                       # What write queue length does an incoming req see
system.mem_ctrls1.wrQLenPdf::59                     0                       # What write queue length does an incoming req see
system.mem_ctrls1.wrQLenPdf::60                     0                       # What write queue length does an incoming req see
system.mem_ctrls1.wrQLenPdf::61                     0                       # What write queue length does an incoming req see
system.mem_ctrls1.wrQLenPdf::62                     0                       # What write queue length does an incoming req see
system.mem_ctrls1.wrQLenPdf::63                     0                       # What write queue length does an incoming req see
system.mem_ctrls1.bytesPerActivate::samples       439167                       # Bytes accessed per row activation
system.mem_ctrls1.bytesPerActivate::mean   169.223352                       # Bytes accessed per row activation
system.mem_ctrls1.bytesPerActivate::gmean   120.361824                       # Bytes accessed per row activation
system.mem_ctrls1.bytesPerActivate::stdev   169.726145                       # Bytes accessed per row activation
system.mem_ctrls1.bytesPerActivate::0-127       227439     51.79%     51.79% # Bytes accessed per row activation
system.mem_ctrls1.bytesPerActivate::128-255       106953     24.35%     76.14% # Bytes accessed per row activation
system.mem_ctrls1.bytesPerActivate::256-383        47845     10.89%     87.04% # Bytes accessed per row activation
system.mem_ctrls1.bytesPerActivate::384-511        30270      6.89%     93.93% # Bytes accessed per row activation
system.mem_ctrls1.bytesPerActivate::512-639        15644      3.56%     97.49% # Bytes accessed per row activation
system.mem_ctrls1.bytesPerActivate::640-767         3805      0.87%     98.36% # Bytes accessed per row activation
system.mem_ctrls1.bytesPerActivate::768-895         1616      0.37%     98.73% # Bytes accessed per row activation
system.mem_ctrls1.bytesPerActivate::896-1023         1432      0.33%     99.05% # Bytes accessed per row activation
system.mem_ctrls1.bytesPerActivate::1024-1151         4163      0.95%    100.00% # Bytes accessed per row activation
system.mem_ctrls1.bytesPerActivate::total       439167                       # Bytes accessed per row activation
system.mem_ctrls1.rdPerTurnAround::samples         4430                       # Reads before turning the bus around for writes
system.mem_ctrls1.rdPerTurnAround::mean    244.346953                       # Reads before turning the bus around for writes
system.mem_ctrls1.rdPerTurnAround::gmean   173.004964                       # Reads before turning the bus around for writes
system.mem_ctrls1.rdPerTurnAround::stdev   506.978694                       # Reads before turning the bus around for writes
system.mem_ctrls1.rdPerTurnAround::0-1023         4330     97.74%     97.74% # Reads before turning the bus around for writes
system.mem_ctrls1.rdPerTurnAround::1024-2047           93      2.10%     99.84% # Reads before turning the bus around for writes
system.mem_ctrls1.rdPerTurnAround::2048-3071            6      0.14%     99.98% # Reads before turning the bus around for writes
system.mem_ctrls1.rdPerTurnAround::28672-29695            1      0.02%    100.00% # Reads before turning the bus around for writes
system.mem_ctrls1.rdPerTurnAround::total         4430                       # Reads before turning the bus around for writes
system.mem_ctrls1.wrPerTurnAround::samples         4430                       # Writes before turning the bus around for reads
system.mem_ctrls1.wrPerTurnAround::mean     17.582844                       # Writes before turning the bus around for reads
system.mem_ctrls1.wrPerTurnAround::gmean    17.562952                       # Writes before turning the bus around for reads
system.mem_ctrls1.wrPerTurnAround::stdev     0.818213                       # Writes before turning the bus around for reads
system.mem_ctrls1.wrPerTurnAround::16             915     20.65%     20.65% # Writes before turning the bus around for reads
system.mem_ctrls1.wrPerTurnAround::17              46      1.04%     21.69% # Writes before turning the bus around for reads
system.mem_ctrls1.wrPerTurnAround::18            3442     77.70%     99.39% # Writes before turning the bus around for reads
system.mem_ctrls1.wrPerTurnAround::19              26      0.59%     99.98% # Writes before turning the bus around for reads
system.mem_ctrls1.wrPerTurnAround::20               1      0.02%    100.00% # Writes before turning the bus around for reads
system.mem_ctrls1.wrPerTurnAround::total         4430                       # Writes before turning the bus around for reads
system.mem_ctrls1.totQLat                 36275505959                       # Total ticks spent queuing
system.mem_ctrls1.totMemAccLat            56587680959                       # Total ticks spent from burst creation until serviced by the DRAM
system.mem_ctrls1.totBusLat                5416580000                       # Total ticks spent in databus transfers
system.mem_ctrls1.avgQLat                    33485.62                       # Average queueing delay per DRAM burst
system.mem_ctrls1.avgBusLat                   5000.00                       # Average bus latency per DRAM burst
system.mem_ctrls1.avgMemAccLat               52235.62                       # Average memory access latency per DRAM burst
system.mem_ctrls1.avgRdBW                       49.34                       # Average DRAM read bandwidth in MiByte/s
system.mem_ctrls1.avgWrBW                        3.55                       # Average achieved write bandwidth in MiByte/s
system.mem_ctrls1.avgRdBWSys                    49.64                       # Average system read bandwidth in MiByte/s
system.mem_ctrls1.avgWrBWSys                     3.56                       # Average system write bandwidth in MiByte/s
system.mem_ctrls1.peakBW                     12800.00                       # Theoretical peak bandwidth in MiByte/s
system.mem_ctrls1.busUtil                        0.41                       # Data bus utilization in percentage
system.mem_ctrls1.busUtilRead                    0.39                       # Data bus utilization in percentage for reads
system.mem_ctrls1.busUtilWrite                   0.03                       # Data bus utilization in percentage for writes
system.mem_ctrls1.avgRdQLen                      1.01                       # Average read queue length when enqueuing
system.mem_ctrls1.avgWrQLen                     24.43                       # Average write queue length when enqueuing
system.mem_ctrls1.readRowHits                  682447                       # Number of row buffer hits during reads
system.mem_ctrls1.writeRowHits                  39594                       # Number of row buffer hits during writes
system.mem_ctrls1.readRowHitRate                63.00                       # Row buffer hit rate for reads
system.mem_ctrls1.writeRowHitRate               50.81                       # Row buffer hit rate for writes
system.mem_ctrls1.avgGap                   1202930.39                       # Average gap between requests
system.mem_ctrls1.pageHitRate                   62.18                       # Row buffer hit rate, read and write combined
system.mem_ctrls1_0.actEnergy              1696206960                       # Energy for activate commands per rank (pJ)
system.mem_ctrls1_0.preEnergy               901555380                       # Energy for precharge commands per rank (pJ)
system.mem_ctrls1_0.readEnergy             4031965140                       # Energy for read commands per rank (pJ)
system.mem_ctrls1_0.writeEnergy             183900600                       # Energy for write commands per rank (pJ)
system.mem_ctrls1_0.refreshEnergy        81835628160.000015                       # Energy for refresh commands per rank (pJ)
system.mem_ctrls1_0.actBackEnergy         25325636940                       # Energy for active background per rank (pJ)
system.mem_ctrls1_0.preBackEnergy          3340781280                       # Energy for precharge background per rank (pJ)
system.mem_ctrls1_0.actPowerDownEnergy   266377193700                       # Energy for active power-down per rank (pJ)
system.mem_ctrls1_0.prePowerDownEnergy    98678201280                       # Energy for precharge power-down per rank (pJ)
system.mem_ctrls1_0.selfRefreshEnergy    129936890655                       # Energy for self refresh per rank (pJ)
system.mem_ctrls1_0.totalEnergy          612338410575                       # Total energy per rank (pJ)
system.mem_ctrls1_0.averagePower           435.806977                       # Core power per rank (mW)
system.mem_ctrls1_0.totalIdleTime        1340720960966                       # Total Idle time Per DRAM Rank
system.mem_ctrls1_0.memoryStateTime::IDLE   5419672130                       # Time in different power states
system.mem_ctrls1_0.memoryStateTime::REF  34729136000                       # Time in different power states
system.mem_ctrls1_0.memoryStateTime::SREF 499626463804                       # Time in different power states
system.mem_ctrls1_0.memoryStateTime::PRE_PDN 256975279348                       # Time in different power states
system.mem_ctrls1_0.memoryStateTime::ACT  24157377081                       # Time in different power states
system.mem_ctrls1_0.memoryStateTime::ACT_PDN 584159996904                       # Time in different power states
system.mem_ctrls1_1.actEnergy              1439445420                       # Energy for activate commands per rank (pJ)
system.mem_ctrls1_1.preEnergy               765083385                       # Energy for precharge commands per rank (pJ)
system.mem_ctrls1_1.readEnergy             3702911100                       # Energy for read commands per rank (pJ)
system.mem_ctrls1_1.writeEnergy             222695640                       # Energy for write commands per rank (pJ)
system.mem_ctrls1_1.refreshEnergy        76356727200.000015                       # Energy for refresh commands per rank (pJ)
system.mem_ctrls1_1.actBackEnergy         24289370100                       # Energy for active background per rank (pJ)
system.mem_ctrls1_1.preBackEnergy          3184367520                       # Energy for precharge background per rank (pJ)
system.mem_ctrls1_1.actPowerDownEnergy   244926894990                       # Energy for active power-down per rank (pJ)
system.mem_ctrls1_1.prePowerDownEnergy    92208956160                       # Energy for precharge power-down per rank (pJ)
system.mem_ctrls1_1.selfRefreshEnergy    145695750195                       # Energy for self refresh per rank (pJ)
system.mem_ctrls1_1.totalEnergy          592820604060                       # Total energy per rank (pJ)
system.mem_ctrls1_1.averagePower           421.915973                       # Core power per rank (mW)
system.mem_ctrls1_1.totalIdleTime        1343375336347                       # Total Idle time Per DRAM Rank
system.mem_ctrls1_1.memoryStateTime::IDLE   5253150367                       # Time in different power states
system.mem_ctrls1_1.memoryStateTime::REF  32408880000                       # Time in different power states
system.mem_ctrls1_1.memoryStateTime::SREF 566198249767                       # Time in different power states
system.mem_ctrls1_1.memoryStateTime::PRE_PDN 240127875949                       # Time in different power states
system.mem_ctrls1_1.memoryStateTime::ACT  23958210681                       # Time in different power states
system.mem_ctrls1_1.memoryStateTime::ACT_PDN 537121558503                       # Time in different power states
system.pwrStateResidencyTicks::UNDEFINED 734357508479253                       # Cumulative time (in ticks) in various power states
system.cpu.branchPred.lookups                       4                       # Number of BP lookups
system.cpu.branchPred.condPredicted                 4                       # Number of conditional branches predicted
system.cpu.branchPred.condIncorrect                 4                       # Number of conditional branches incorrect
system.cpu.branchPred.BTBLookups                    0                       # Number of BTB lookups
system.cpu.branchPred.BTBHits                       0                       # Number of BTB hits
system.cpu.branchPred.BTBCorrect                    0                       # Number of correct BTB predictions (this stat may not work properly.
system.cpu.branchPred.BTBHitPct                   nan                       # BTB Hit Percentage
system.cpu.branchPred.usedRAS                       0                       # Number of times the RAS was used to get a target.
system.cpu.branchPred.RASInCorrect                  0                       # Number of incorrect RAS predictions.
system.cpu.branchPred.indirectLookups               0                       # Number of indirect predictor lookups.
system.cpu.branchPred.indirectHits                  0                       # Number of indirect target hits.
system.cpu.branchPred.indirectMisses                0                       # Number of indirect misses.
system.cpu.branchPredindirectMispredicted            0                       # Number of mispredicted indirect branches.
system.cpu_voltage_domain.voltage                   1                       # Voltage in Volts
system.cpu_clk_domain.clock                       333                       # Clock period in ticks
system.cpu.dtb.fetch_hits                           0                       # ITB hits
system.cpu.dtb.fetch_misses                         0                       # ITB misses
system.cpu.dtb.fetch_acv                            0                       # ITB acv
system.cpu.dtb.fetch_accesses                       0                       # ITB accesses
system.cpu.dtb.read_hits                           36                       # DTB read hits
system.cpu.dtb.read_misses                          0                       # DTB read misses
system.cpu.dtb.read_acv                             0                       # DTB read access violations
system.cpu.dtb.read_accesses                       36                       # DTB read accesses
system.cpu.dtb.write_hits                           0                       # DTB write hits
system.cpu.dtb.write_misses                         0                       # DTB write misses
system.cpu.dtb.write_acv                            0                       # DTB write access violations
system.cpu.dtb.write_accesses                       0                       # DTB write accesses
system.cpu.dtb.data_hits                           36                       # DTB hits
system.cpu.dtb.data_misses                          0                       # DTB misses
system.cpu.dtb.data_acv                             0                       # DTB access violations
system.cpu.dtb.data_accesses                       36                       # DTB accesses
system.cpu.itb.fetch_hits                          13                       # ITB hits
system.cpu.itb.fetch_misses                         0                       # ITB misses
system.cpu.itb.fetch_acv                            0                       # ITB acv
system.cpu.itb.fetch_accesses                      13                       # ITB accesses
system.cpu.itb.read_hits                            0                       # DTB read hits
system.cpu.itb.read_misses                          0                       # DTB read misses
system.cpu.itb.read_acv                             0                       # DTB read access violations
system.cpu.itb.read_accesses                        0                       # DTB read accesses
system.cpu.itb.write_hits                           0                       # DTB write hits
system.cpu.itb.write_misses                         0                       # DTB write misses
system.cpu.itb.write_acv                            0                       # DTB write access violations
system.cpu.itb.write_accesses                       0                       # DTB write accesses
system.cpu.itb.data_hits                            0                       # DTB hits
system.cpu.itb.data_misses                          0                       # DTB misses
system.cpu.itb.data_acv                             0                       # DTB access violations
system.cpu.itb.data_accesses                        0                       # DTB accesses
system.cpu.workload.num_syscalls                   44                       # Number of system calls
system.cpu.pwrStateResidencyTicks::ON    1405067925267                       # Cumulative time (in ticks) in various power states
system.cpu.numCycles                              723                       # number of cpu cycles simulated
system.cpu.numWorkItemsStarted                      0                       # number of work items this cpu started
system.cpu.numWorkItemsCompleted                    0                       # number of work items this cpu completed
system.cpu.fetch.icacheStallCycles                 63                       # Number of cycles fetch is stalled on an Icache miss
system.cpu.fetch.Insts                             96                       # Number of instructions fetch has processed
system.cpu.fetch.Branches                           4                       # Number of branches that fetch encountered
system.cpu.fetch.Cycles                            12                       # Number of cycles fetch has run and was not squashing or blocked
system.cpu.fetch.SquashCycles                      11                       # Number of cycles fetch has spent squashing
system.cpu.fetch.PendingDrainCycles                16                       # Number of cycles fetch has spent waiting on pipes to drain
system.cpu.fetch.CacheLines                        13                       # Number of cache lines fetched
system.cpu.fetch.IcacheSquashes                     5                       # Number of outstanding Icache misses that were squashed
system.cpu.fetch.rateDist::samples                 96                       # Number of instructions fetched each cycle (Total)
system.cpu.fetch.rateDist::mean                     1                       # Number of instructions fetched each cycle (Total)
system.cpu.fetch.rateDist::stdev             2.659640                       # Number of instructions fetched each cycle (Total)
system.cpu.fetch.rateDist::underflows               0      0.00%      0.00% # Number of instructions fetched each cycle (Total)
system.cpu.fetch.rateDist::0                       84     87.50%     87.50% # Number of instructions fetched each cycle (Total)
system.cpu.fetch.rateDist::1                        0      0.00%     87.50% # Number of instructions fetched each cycle (Total)
system.cpu.fetch.rateDist::2                        0      0.00%     87.50% # Number of instructions fetched each cycle (Total)
system.cpu.fetch.rateDist::3                        0      0.00%     87.50% # Number of instructions fetched each cycle (Total)
system.cpu.fetch.rateDist::4                        0      0.00%     87.50% # Number of instructions fetched each cycle (Total)
system.cpu.fetch.rateDist::5                        0      0.00%     87.50% # Number of instructions fetched each cycle (Total)
system.cpu.fetch.rateDist::6                        0      0.00%     87.50% # Number of instructions fetched each cycle (Total)
[...]
system.switch_cpus_1.iq.int_inst_queue_wakeup_accesses    115256215                       # Number of integer instruction queue wakeup accesses
system.switch_cpus_1.iq.fp_inst_queue_reads    210543166                       # Number of floating instruction queue reads
system.switch_cpus_1.iq.fp_inst_queue_writes    113940539                       # Number of floating instruction queue writes
system.switch_cpus_1.iq.fp_inst_queue_wakeup_accesses    101076036                       # Number of floating instruction queue wakeup accesses
system.switch_cpus_1.iq.int_alu_accesses    118848445                       # Number of integer alu accesses
system.switch_cpus_1.iq.fp_alu_accesses     107699528                       # Number of floating point alu accesses
system.switch_cpus_1.iew.lsq.thread0.forwLoads       570772                       # Number of loads that had data forwarded from stores
system.switch_cpus_1.iew.lsq.thread0.invAddrLoads            0                       # Number of loads ignored due to an invalid address
system.switch_cpus_1.iew.lsq.thread0.squashedLoads      6566068                       # Number of loads squashed
system.switch_cpus_1.iew.lsq.thread0.ignoredResponses         8001                       # Number of memory responses ignored because the instruction is squashed
system.switch_cpus_1.iew.lsq.thread0.memOrderViolation         2156                       # Number of memory ordering violations
system.switch_cpus_1.iew.lsq.thread0.squashedStores       673760                       # Number of stores squashed
system.switch_cpus_1.iew.lsq.thread0.invAddrSwpfs            0                       # Number of software prefetches ignored due to an invalid address
system.switch_cpus_1.iew.lsq.thread0.blockedLoads            0                       # Number of blocked loads due to partial load-store forwarding
system.switch_cpus_1.iew.lsq.thread0.rescheduledLoads          150                       # Number of loads that were rescheduled
system.switch_cpus_1.iew.lsq.thread0.cacheBlocked      2031397                       # Number of times an access to memory failed due to the cache being blocked
system.switch_cpus_1.iew.iewIdleCycles              0                       # Number of cycles IEW is idle
system.switch_cpus_1.iew.iewSquashCycles       510527                       # Number of cycles IEW is squashing
system.switch_cpus_1.iew.iewBlockCycles      53361117                       # Number of cycles IEW is blocking
system.switch_cpus_1.iew.iewUnblockCycles     29821239                       # Number of cycles IEW is unblocking
system.switch_cpus_1.iew.iewDispatchedInsts    228167134                       # Number of instructions dispatched to IQ
system.switch_cpus_1.iew.iewDispSquashedInsts       323986                       # Number of squashed instructions skipped by dispatch
system.switch_cpus_1.iew.iewDispLoadInsts     49867165                       # Number of dispatched load instructions
system.switch_cpus_1.iew.iewDispStoreInsts      4056864                       # Number of dispatched store instructions
system.switch_cpus_1.iew.iewDispNonSpecInsts         3529                       # Number of dispatched non-speculative instructions
system.switch_cpus_1.iew.iewIQFullEvents       785866                       # Number of times the IQ has become full, causing a stall
system.switch_cpus_1.iew.iewLSQFullEvents     28528740                       # Number of times the LSQ has become full, causing a stall
system.switch_cpus_1.iew.memOrderViolationEvents         2156                       # Number of memory order violations
system.switch_cpus_1.iew.predictedTakenIncorrect       406294                       # Number of branches that were predicted taken incorrectly
system.switch_cpus_1.iew.predictedNotTakenIncorrect       105163                       # Number of branches that were predicted not taken incorrectly
system.switch_cpus_1.iew.branchMispredicts       511457                       # Number of branch mispredicts detected at execute
system.switch_cpus_1.iew.iewExecutedInsts    219746390                       # Number of executed instructions
system.switch_cpus_1.iew.iewExecLoadInsts     50277087                       # Number of load instructions executed
system.switch_cpus_1.iew.iewExecSquashedInsts      1016868                       # Number of squashed instructions skipped in execute
system.switch_cpus_1.iew.exec_swp                   0                       # number of swp insts executed
system.switch_cpus_1.iew.exec_nop             2132038                       # number of nop insts executed
system.switch_cpus_1.iew.exec_refs           54084021                       # number of memory reference insts executed
system.switch_cpus_1.iew.exec_branches       18016769                       # Number of branches executed
system.switch_cpus_1.iew.exec_stores          3806934                       # Number of stores executed
system.switch_cpus_1.iew.exec_rate           1.009009                       # Inst execution rate
system.switch_cpus_1.iew.wb_sent            217086480                       # cumulative count of insts sent to commit
system.switch_cpus_1.iew.wb_count           216332251                       # cumulative count of insts written-back
system.switch_cpus_1.iew.wb_producers       160234284                       # num instructions producing a value
system.switch_cpus_1.iew.wb_consumers       204354161                       # num instructions consuming a value
system.switch_cpus_1.iew.wb_rate             0.993332                       # insts written-back per cycle
system.switch_cpus_1.iew.wb_fanout           0.784101                       # average fanout of values written-back
system.switch_cpus_1.commit.commitSquashedInsts     25077954                       # The number of squashed insts skipped by commit
system.switch_cpus_1.commit.commitNonSpecStalls         4876                       # The number of times commit has been forced to stall to communicate backwards
system.switch_cpus_1.commit.branchMispredicts       437635                       # The number of times a branch was mispredicted
system.switch_cpus_1.commit.committed_per_cycle::samples    214003659                       # Number of insts commited each cycle
system.switch_cpus_1.commit.committed_per_cycle::mean     0.942448                       # Number of insts commited each cycle
system.switch_cpus_1.commit.committed_per_cycle::stdev     2.374136                       # Number of insts commited each cycle
system.switch_cpus_1.commit.committed_per_cycle::underflows            0      0.00%      0.00% # Number of insts commited each cycle
system.switch_cpus_1.commit.committed_per_cycle::0    176771913     82.60%     82.60% # Number of insts commited each cycle
system.switch_cpus_1.commit.committed_per_cycle::1      6818508      3.19%     85.79% # Number of insts commited each cycle
system.switch_cpus_1.commit.committed_per_cycle::2      3524412      1.65%     87.44% # Number of insts commited each cycle
system.switch_cpus_1.commit.committed_per_cycle::3      1383040      0.65%     88.08% # Number of insts commited each cycle
system.switch_cpus_1.commit.committed_per_cycle::4      1742213      0.81%     88.90% # Number of insts commited each cycle
system.switch_cpus_1.commit.committed_per_cycle::5      1115256      0.52%     89.42% # Number of insts commited each cycle
system.switch_cpus_1.commit.committed_per_cycle::6      4307426      2.01%     91.43% # Number of insts commited each cycle
system.switch_cpus_1.commit.committed_per_cycle::7      1445904      0.68%     92.11% # Number of insts commited each cycle
system.switch_cpus_1.commit.committed_per_cycle::8     16894987      7.89%    100.00% # Number of insts commited each cycle
system.switch_cpus_1.commit.committed_per_cycle::overflows            0      0.00%    100.00% # Number of insts commited each cycle
system.switch_cpus_1.commit.committed_per_cycle::min_value            0                       # Number of insts commited each cycle
system.switch_cpus_1.commit.committed_per_cycle::max_value            8                       # Number of insts commited each cycle
system.switch_cpus_1.commit.committed_per_cycle::total    214003659                       # Number of insts commited each cycle
system.switch_cpus_1.commit.committedInsts    201687364                       # Number of instructions committed
system.switch_cpus_1.commit.committedOps    201687364                       # Number of ops (including micro ops) committed
system.switch_cpus_1.commit.swp_count               0                       # Number of s/w prefetches committed
system.switch_cpus_1.commit.refs             46684198                       # Number of memory references committed
system.switch_cpus_1.commit.loads            43301094                       # Number of loads committed
system.switch_cpus_1.commit.membars              2438                       # Number of memory barriers committed
system.switch_cpus_1.commit.branches         16053531                       # Number of branches committed
system.switch_cpus_1.commit.fp_insts         97819303                       # Number of committed floating point instructions.
system.switch_cpus_1.commit.int_insts       136497010                       # Number of committed integer instructions.
system.switch_cpus_1.commit.function_calls       279259                       # Number of function calls committed.
system.switch_cpus_1.commit.op_class_0::No_OpClass      1687643      0.84%      0.84% # Class of committed instruction
system.switch_cpus_1.commit.op_class_0::IntAlu     89863699     44.56%     45.39% # Class of committed instruction
system.switch_cpus_1.commit.op_class_0::IntMult          759      0.00%     45.39% # Class of committed instruction
system.switch_cpus_1.commit.op_class_0::IntDiv            0      0.00%     45.39% # Class of committed instruction
system.switch_cpus_1.commit.op_class_0::FloatAdd     37891739     18.79%     64.18% # Class of committed instruction
system.switch_cpus_1.commit.op_class_0::FloatCmp       635720      0.32%     64.50% # Class of committed instruction
system.switch_cpus_1.commit.op_class_0::FloatCvt       230023      0.11%     64.61% # Class of committed instruction
system.switch_cpus_1.commit.op_class_0::FloatMult     24664631     12.23%     76.84% # Class of committed instruction
system.switch_cpus_1.commit.op_class_0::FloatMultAcc            0      0.00%     76.84% # Class of committed instruction
system.switch_cpus_1.commit.op_class_0::FloatDiv        26514      0.01%     76.85% # Class of committed instruction
system.switch_cpus_1.commit.op_class_0::FloatMisc            0      0.00%     76.85% # Class of committed instruction
system.switch_cpus_1.commit.op_class_0::FloatSqrt            0      0.00%     76.85% # Class of committed instruction
system.switch_cpus_1.commit.op_class_0::SimdAdd            0      0.00%     76.85% # Class of committed instruction
system.switch_cpus_1.commit.op_class_0::SimdAddAcc            0      0.00%     76.85% # Class of committed instruction
system.switch_cpus_1.commit.op_class_0::SimdAlu            0      0.00%     76.85% # Class of committed instruction
system.switch_cpus_1.commit.op_class_0::SimdCmp            0      0.00%     76.85% # Class of committed instruction
system.switch_cpus_1.commit.op_class_0::SimdCvt            0      0.00%     76.85% # Class of committed instruction
system.switch_cpus_1.commit.op_class_0::SimdMisc            0      0.00%     76.85% # Class of committed instruction
system.switch_cpus_1.commit.op_class_0::SimdMult            0      0.00%     76.85% # Class of committed instruction
system.switch_cpus_1.commit.op_class_0::SimdMultAcc            0      0.00%     76.85% # Class of committed instruction
system.switch_cpus_1.commit.op_class_0::SimdShift            0      0.00%     76.85% # Class of committed instruction
system.switch_cpus_1.commit.op_class_0::SimdShiftAcc            0      0.00%     76.85% # Class of committed instruction
system.switch_cpus_1.commit.op_class_0::SimdSqrt            0      0.00%     76.85% # Class of committed instruction
system.switch_cpus_1.commit.op_class_0::SimdFloatAdd            0      0.00%     76.85% # Class of committed instruction
system.switch_cpus_1.commit.op_class_0::SimdFloatAlu            0      0.00%     76.85% # Class of committed instruction
system.switch_cpus_1.commit.op_class_0::SimdFloatCmp            0      0.00%     76.85% # Class of committed instruction
system.switch_cpus_1.commit.op_class_0::SimdFloatCvt            0      0.00%     76.85% # Class of committed instruction
system.switch_cpus_1.commit.op_class_0::SimdFloatDiv            0      0.00%     76.85% # Class of committed instruction
system.switch_cpus_1.commit.op_class_0::SimdFloatMisc            0      0.00%     76.85% # Class of committed instruction
system.switch_cpus_1.commit.op_class_0::SimdFloatMult            0      0.00%     76.85% # Class of committed instruction
system.switch_cpus_1.commit.op_class_0::SimdFloatMultAcc            0      0.00%     76.85% # Class of committed instruction
system.switch_cpus_1.commit.op_class_0::SimdFloatSqrt            0      0.00%     76.85% # Class of committed instruction
system.switch_cpus_1.commit.op_class_0::MemRead      9751532      4.83%     81.69% # Class of committed instruction
system.switch_cpus_1.commit.op_class_0::MemWrite      2564428      1.27%     82.96% # Class of committed instruction
system.switch_cpus_1.commit.op_class_0::FloatMemRead     33552000     16.64%     99.59% # Class of committed instruction
system.switch_cpus_1.commit.op_class_0::FloatMemWrite       818676      0.41%    100.00% # Class of committed instruction
system.switch_cpus_1.commit.op_class_0::IprAccess            0      0.00%    100.00% # Class of committed instruction
system.switch_cpus_1.commit.op_class_0::InstPrefetch            0      0.00%    100.00% # Class of committed instruction
system.switch_cpus_1.commit.op_class_0::total    201687364                       # Class of committed instruction
system.switch_cpus_1.commit.bw_lim_events     16894987                       # number cycles where commit BW limit reached
system.switch_cpus_1.rob.rob_reads          422949807                       # The number of ROB reads
system.switch_cpus_1.rob.rob_writes         456939528                       # The number of ROB writes
system.switch_cpus_1.timesIdled                  2436                       # Number of times that the entire CPU went into an idle state and unscheduled itself
system.switch_cpus_1.idleCycles                373871                       # Total number of cycles that the CPU has spent unscheduled due to idling
system.switch_cpus_1.committedInsts         200000005                       # Number of Instructions Simulated
system.switch_cpus_1.committedOps           200000005                       # Number of Ops (including micro ops) Simulated
system.switch_cpus_1.cpi                     1.088922                       # CPI: Cycles Per Instruction
system.switch_cpus_1.cpi_total               1.088922                       # CPI: Total CPI of All Threads
system.switch_cpus_1.ipc                     0.918340                       # IPC: Instructions Per Cycle
system.switch_cpus_1.ipc_total               0.918340                       # IPC: Total IPC of All Threads
system.switch_cpus_1.int_regfile_reads      217879304                       # number of integer regfile reads
system.switch_cpus_1.int_regfile_writes      94941496                       # number of integer regfile writes
system.switch_cpus_1.fp_regfile_reads       130235290                       # number of floating regfile reads
system.switch_cpus_1.fp_regfile_writes      100041177                       # number of floating regfile writes
system.switch_cpus_1.misc_regfile_reads        407353                       # number of misc regfile reads
system.switch_cpus_1.misc_regfile_writes         5018                       # number of misc regfile writes
system.tol3bus.snoop_filter.tot_requests     26332357                       # Total number of requests made to the snoop filter.
system.tol3bus.snoop_filter.hit_single_requests     13164899                       # Number of requests hitting in the snoop filter with a single holder of the requested data.
system.tol3bus.snoop_filter.hit_multi_requests            0                       # Number of requests hitting in the snoop filter with multiple (>1) holders of the requested data.
system.tol3bus.snoop_filter.tot_snoops           5826                       # Total number of snoops made to the snoop filter.
system.tol3bus.snoop_filter.hit_single_snoops         5826                       # Number of snoops hitting in the snoop filter with a single holder of the requested data.
system.tol3bus.snoop_filter.hit_multi_snoops            0                       # Number of snoops hitting in the snoop filter with multiple (>1) holders of the requested data.
system.tol3bus.pwrStateResidencyTicks::UNDEFINED 734357508479253                       # Cumulative time (in ticks) in various power states
system.tol3bus.trans_dist::ReadResp          12311877                       # Transaction distribution
system.tol3bus.trans_dist::WritebackDirty      1771289                       # Transaction distribution
system.tol3bus.trans_dist::CleanEvict        13510377                       # Transaction distribution
system.tol3bus.trans_dist::UpgradeReq              45                       # Transaction distribution
system.tol3bus.trans_dist::UpgradeResp             45                       # Transaction distribution
system.tol3bus.trans_dist::ReadExReq           855581                       # Transaction distribution
system.tol3bus.trans_dist::ReadExResp          855581                       # Transaction distribution
system.tol3bus.trans_dist::ReadSharedReq     12311877                       # Transaction distribution
system.tol3bus.pkt_count_system.cpu.l2.mem_side::system.l3.cpu_side     39499860                       # Packet count per connected master and slave (bytes)
system.tol3bus.pkt_size_system.cpu.l2.mem_side::system.l3.cpu_side    946054528                       # Cumulative packet size per connected master and slave (bytes)
system.tol3bus.snoops                         2116812                       # Total snoops (count)
system.tol3bus.snoopTraffic                  10025280                       # Total snoop traffic (bytes)
system.tol3bus.snoop_fanout::samples         15284315                       # Request fanout histogram
system.tol3bus.snoop_fanout::mean            0.000381                       # Request fanout histogram
system.tol3bus.snoop_fanout::stdev           0.019520                       # Request fanout histogram
system.tol3bus.snoop_fanout::underflows             0      0.00%      0.00% # Request fanout histogram
system.tol3bus.snoop_fanout::0               15278489     99.96%     99.96% # Request fanout histogram
system.tol3bus.snoop_fanout::1                   5826      0.04%    100.00% # Request fanout histogram
system.tol3bus.snoop_fanout::overflows              0      0.00%    100.00% # Request fanout histogram
system.tol3bus.snoop_fanout::min_value              0                       # Request fanout histogram
system.tol3bus.snoop_fanout::max_value              1                       # Request fanout histogram
system.tol3bus.snoop_fanout::total           15284315                       # Request fanout histogram
system.tol3bus.reqLayer0.occupancy         9306351333                       # Layer occupancy (ticks)
system.tol3bus.reqLayer0.utilization              0.7                       # Layer utilization (%)
system.tol3bus.respLayer0.occupancy        8769542013                       # Layer occupancy (ticks)
system.tol3bus.respLayer0.utilization             0.6                       # Layer utilization (%)

---------- End Simulation Statistics   ----------
