
---------- Begin Simulation Statistics ----------
sim_seconds                                  6.280344                       # Number of seconds simulated
sim_ticks                                6280343697006                       # Number of ticks simulated
final_tick                               26265445056873                       # Number of ticks from beginning of simulation (restored from checkpoints and never reset)
sim_freq                                 1000000000000                       # Frequency of simulated ticks
host_inst_rate                                 133857                       # Simulator instruction rate (inst/s)
host_op_rate                                   133857                       # Simulator op (including micro ops) rate (op/s)
host_tick_rate                              700557619                       # Simulator tick rate (ticks/s)
host_mem_usage                                2453500                       # Number of bytes of host memory used
host_seconds                                  8964.78                       # Real time elapsed on the host
sim_insts                                  1200000007                       # Number of instructions simulated
sim_ops                                    1200000007                       # Number of ops (including micro ops) simulated
system.voltage_domain.voltage                       1                       # Voltage in Volts
system.clk_domain.clock                          1000                       # Clock period in ticks
system.mem_ctrls0.pwrStateResidencyTicks::UNDEFINED 26265445056873                       # Cumulative time (in ticks) in various power states
system.mem_ctrls0.bytes_read::cpu.inst             64                       # Number of bytes read from this memory
system.mem_ctrls0.bytes_read::cpu.data             64                       # Number of bytes read from this memory
system.mem_ctrls0.bytes_read::switch_cpus.inst         1152                       # Number of bytes read from this memory
system.mem_ctrls0.bytes_read::switch_cpus.data    880214208                       # Number of bytes read from this memory
system.mem_ctrls0.bytes_read::switch_cpus_1.data    180084288                       # Number of bytes read from this memory
system.mem_ctrls0.bytes_read::total        1060299776                       # Number of bytes read from this memory
system.mem_ctrls0.bytes_inst_read::cpu.inst           64                       # Number of instructions bytes read from this memory
system.mem_ctrls0.bytes_inst_read::switch_cpus.inst         1152                       # Number of instructions bytes read from this memory
system.mem_ctrls0.bytes_inst_read::total         1216                       # Number of instructions bytes read from this memory
system.mem_ctrls0.bytes_written::writebacks    753667008                       # Number of bytes written to this memory
system.mem_ctrls0.bytes_written::total      753667008                       # Number of bytes written to this memory
system.mem_ctrls0.num_reads::cpu.inst               1                       # Number of read requests responded to by this memory
system.mem_ctrls0.num_reads::cpu.data               1                       # Number of read requests responded to by this memory
system.mem_ctrls0.num_reads::switch_cpus.inst           18                       # Number of read requests responded to by this memory
system.mem_ctrls0.num_reads::switch_cpus.data     13753347                       # Number of read requests responded to by this memory
system.mem_ctrls0.num_reads::switch_cpus_1.data      2813817                       # Number of read requests responded to by this memory
system.mem_ctrls0.num_reads::total           16567184                       # Number of read requests responded to by this memory
system.mem_ctrls0.num_writes::writebacks     11776047                       # Number of write requests responded to by this memory
system.mem_ctrls0.num_writes::total          11776047                       # Number of write requests responded to by this memory
system.mem_ctrls0.bw_read::cpu.inst                10                       # Total read bandwidth from this memory (bytes/s)
system.mem_ctrls0.bw_read::cpu.data                10                       # Total read bandwidth from this memory (bytes/s)
system.mem_ctrls0.bw_read::switch_cpus.inst          183                       # Total read bandwidth from this memory (bytes/s)
system.mem_ctrls0.bw_read::switch_cpus.data    140153828                       # Total read bandwidth from this memory (bytes/s)
system.mem_ctrls0.bw_read::switch_cpus_1.data     28674273                       # Total read bandwidth from this memory (bytes/s)
system.mem_ctrls0.bw_read::total            168828304                       # Total read bandwidth from this memory (bytes/s)
system.mem_ctrls0.bw_inst_read::cpu.inst           10                       # Instruction read bandwidth from this memory (bytes/s)
system.mem_ctrls0.bw_inst_read::switch_cpus.inst          183                       # Instruction read bandwidth from this memory (bytes/s)
system.mem_ctrls0.bw_inst_read::total             194                       # Instruction read bandwidth from this memory (bytes/s)
system.mem_ctrls0.bw_write::writebacks      120004102                       # Write bandwidth from this memory (bytes/s)
system.mem_ctrls0.bw_write::total           120004102                       # Write bandwidth from this memory (bytes/s)
system.mem_ctrls0.bw_total::writebacks      120004102                       # Total bandwidth to/from this memory (bytes/s)
system.mem_ctrls0.bw_total::cpu.inst               10                       # Total bandwidth to/from this memory (bytes/s)
system.mem_ctrls0.bw_total::cpu.data               10                       # Total bandwidth to/from this memory (bytes/s)
system.mem_ctrls0.bw_total::switch_cpus.inst          183                       # Total bandwidth to/from this memory (bytes/s)
system.mem_ctrls0.bw_total::switch_cpus.data    140153828                       # Total bandwidth to/from this memory (bytes/s)
system.mem_ctrls0.bw_total::switch_cpus_1.data     28674273                       # Total bandwidth to/from this memory (bytes/s)
system.mem_ctrls0.bw_total::total           288832407                       # Total bandwidth to/from this memory (bytes/s)
system.mem_ctrls0.readReqs                   16567185                       # Number of read requests accepted
system.mem_ctrls0.writeReqs                  11776047                       # Number of write requests accepted
system.mem_ctrls0.readBursts                 16567185                       # Number of DRAM read bursts, including those serviced by the write queue
system.mem_ctrls0.writeBursts                11776047                       # Number of DRAM write bursts, including those merged in the write queue
system.mem_ctrls0.bytesReadDRAM            1060299840                       # Total number of bytes read from DRAM
system.mem_ctrls0.bytesReadWrQ                      0                       # Total number of bytes read from write queue
system.mem_ctrls0.bytesWritten              753665856                       # Total number of bytes written to DRAM
system.mem_ctrls0.bytesReadSys             1060299840                       # Total read bytes from the system interface side
system.mem_ctrls0.bytesWrittenSys           753667008                       # Total written bytes from the system interface side
system.mem_ctrls0.servicedByWrQ                     0                       # Number of DRAM read bursts serviced by the write queue
system.mem_ctrls0.mergedWrBursts                    0                       # Number of DRAM write bursts merged with an existing one
system.mem_ctrls0.neitherReadNorWriteReqs            0                       # Number of requests that are neither read nor write
system.mem_ctrls0.perBankRdBursts::0          1033835                       # Per bank write bursts
system.mem_ctrls0.perBankRdBursts::1          1035126                       # Per bank write bursts
system.mem_ctrls0.perBankRdBursts::2          1035722                       # Per bank write bursts
system.mem_ctrls0.perBankRdBursts::3          1036057                       # Per bank write bursts
system.mem_ctrls0.perBankRdBursts::4          1035967                       # Per bank write bursts
system.mem_ctrls0.perBankRdBursts::5          1036121                       # Per bank write bursts
system.mem_ctrls0.perBankRdBursts::6          1037234                       # Per bank write bursts
system.mem_ctrls0.perBankRdBursts::7          1036878                       # Per bank write bursts
system.mem_ctrls0.perBankRdBursts::8          1036329                       # Per bank write bursts
system.mem_ctrls0.perBankRdBursts::9          1035806                       # Per bank write bursts
system.mem_ctrls0.perBankRdBursts::10         1035397                       # Per bank write bursts
system.mem_ctrls0.perBankRdBursts::11         1034636                       # Per bank write bursts
system.mem_ctrls0.perBankRdBursts::12         1035251                       # Per bank write bursts
system.mem_ctrls0.perBankRdBursts::13         1034283                       # Per bank write bursts
system.mem_ctrls0.perBankRdBursts::14         1033747                       # Per bank write bursts
system.mem_ctrls0.perBankRdBursts::15         1034796                       # Per bank write bursts
system.mem_ctrls0.perBankWrBursts::0           734671                       # Per bank write bursts
system.mem_ctrls0.perBankWrBursts::1           736023                       # Per bank write bursts
system.mem_ctrls0.perBankWrBursts::2           736464                       # Per bank write bursts
system.mem_ctrls0.perBankWrBursts::3           736632                       # Per bank write bursts
system.mem_ctrls0.perBankWrBursts::4           736446                       # Per bank write bursts
system.mem_ctrls0.perBankWrBursts::5           736467                       # Per bank write bursts
system.mem_ctrls0.perBankWrBursts::6           737542                       # Per bank write bursts
system.mem_ctrls0.perBankWrBursts::7           737133                       # Per bank write bursts
system.mem_ctrls0.perBankWrBursts::8           736556                       # Per bank write bursts
system.mem_ctrls0.perBankWrBursts::9           736020                       # Per bank write bursts
system.mem_ctrls0.perBankWrBursts::10          735856                       # Per bank write bursts
system.mem_ctrls0.perBankWrBursts::11          735230                       # Per bank write bursts
system.mem_ctrls0.perBankWrBursts::12          735485                       # Per bank write bursts
system.mem_ctrls0.perBankWrBursts::13          735170                       # Per bank write bursts
system.mem_ctrls0.perBankWrBursts::14          734667                       # Per bank write bursts
system.mem_ctrls0.perBankWrBursts::15          735667                       # Per bank write bursts
system.mem_ctrls0.numRdRetry                        0                       # Number of times read queue was full causing retry
system.mem_ctrls0.numWrRetry                        0                       # Number of times write queue was full causing retry
system.mem_ctrls0.totGap                 6280343476227                       # Total gap between requests
system.mem_ctrls0.readPktSize::0                    0                       # Read request sizes (log2)
system.mem_ctrls0.readPktSize::1                    0                       # Read request sizes (log2)
system.mem_ctrls0.readPktSize::2                    0                       # Read request sizes (log2)
system.mem_ctrls0.readPktSize::3                    0                       # Read request sizes (log2)
system.mem_ctrls0.readPktSize::4                    0                       # Read request sizes (log2)
system.mem_ctrls0.readPktSize::5                    0                       # Read request sizes (log2)
system.mem_ctrls0.readPktSize::6             16567185                       # Read request sizes (log2)
system.mem_ctrls0.writePktSize::0                   0                       # Write request sizes (log2)
system.mem_ctrls0.writePktSize::1                   0                       # Write request sizes (log2)
system.mem_ctrls0.writePktSize::2                   0                       # Write request sizes (log2)
system.mem_ctrls0.writePktSize::3                   0                       # Write request sizes (log2)
system.mem_ctrls0.writePktSize::4                   0                       # Write request sizes (log2)
system.mem_ctrls0.writePktSize::5                   0                       # Write request sizes (log2)
system.mem_ctrls0.writePktSize::6            11776047                       # Write request sizes (log2)
system.mem_ctrls0.rdQLenPdf::0               15668573                       # What read queue length does an incoming req see
system.mem_ctrls0.rdQLenPdf::1                 731314                       # What read queue length does an incoming req see
system.mem_ctrls0.rdQLenPdf::2                 158871                       # What read queue length does an incoming req see
system.mem_ctrls0.rdQLenPdf::3                   8427                       # What read queue length does an incoming req see
system.mem_ctrls0.rdQLenPdf::4                      0                       # What read queue length does an incoming req see
system.mem_ctrls0.rdQLenPdf::5                      0                       # What read queue length does an incoming req see
system.mem_ctrls0.rdQLenPdf::6                      0                       # What read queue length does an incoming req see
system.mem_ctrls0.rdQLenPdf::7                      0                       # What read queue length does an incoming req see
system.mem_ctrls0.rdQLenPdf::8                      0                       # What read queue length does an incoming req see
system.mem_ctrls0.rdQLenPdf::9                      0                       # What read queue length does an incoming req see
system.mem_ctrls0.rdQLenPdf::10                     0                       # What read queue length does an incoming req see
system.mem_ctrls0.rdQLenPdf::11                     0                       # What read queue length does an incoming req see
system.mem_ctrls0.rdQLenPdf::12                     0                       # What read queue length does an incoming req see
system.mem_ctrls0.rdQLenPdf::13                     0                       # What read queue length does an incoming req see
system.mem_ctrls0.rdQLenPdf::14                     0                       # What read queue length does an incoming req see
system.mem_ctrls0.rdQLenPdf::15                     0                       # What read queue length does an incoming req see
system.mem_ctrls0.rdQLenPdf::16                     0                       # What read queue length does an incoming req see
system.mem_ctrls0.rdQLenPdf::17                     0                       # What read queue length does an incoming req see
system.mem_ctrls0.rdQLenPdf::18                     0                       # What read queue length does an incoming req see
system.mem_ctrls0.rdQLenPdf::19                     0                       # What read queue length does an incoming req see
system.mem_ctrls0.rdQLenPdf::20                     0                       # What read queue length does an incoming req see
system.mem_ctrls0.rdQLenPdf::21                     0                       # What read queue length does an incoming req see
system.mem_ctrls0.rdQLenPdf::22                     0                       # What read queue length does an incoming req see
system.mem_ctrls0.rdQLenPdf::23                     0                       # What read queue length does an incoming req see
system.mem_ctrls0.rdQLenPdf::24                     0                       # What read queue length does an incoming req see
system.mem_ctrls0.rdQLenPdf::25                     0                       # What read queue length does an incoming req see
system.mem_ctrls0.rdQLenPdf::26                     0                       # What read queue length does an incoming req see
system.mem_ctrls0.rdQLenPdf::27                     0                       # What read queue length does an incoming req see
system.mem_ctrls0.rdQLenPdf::28                     0                       # What read queue length does an incoming req see
system.mem_ctrls0.rdQLenPdf::29                     0                       # What read queue length does an incoming req see
system.mem_ctrls0.rdQLenPdf::30                     0                       # What read queue length does an incoming req see
system.mem_ctrls0.rdQLenPdf::31                     0                       # What read queue length does an incoming req see
system.mem_ctrls0.wrQLenPdf::0                      2                       # What write queue length does an incoming req see
system.mem_ctrls0.wrQLenPdf::1                      2                       # What write queue length does an incoming req see
system.mem_ctrls0.wrQLenPdf::2                      2                       # What write queue length does an incoming req see
system.mem_ctrls0.wrQLenPdf::3                      2                       # What write queue length does an incoming req see
system.mem_ctrls0.wrQLenPdf::4                      2                       # What write queue length does an incoming req see
system.mem_ctrls0.wrQLenPdf::5                      2                       # What write queue length does an incoming req see
system.mem_ctrls0.wrQLenPdf::6                      2                       # What write queue length does an incoming req see
system.mem_ctrls0.wrQLenPdf::7                      2                       # What write queue length does an incoming req see
system.mem_ctrls0.wrQLenPdf::8                      2                       # What write queue length does an incoming req see
system.mem_ctrls0.wrQLenPdf::9                      2                       # What write queue length does an incoming req see
system.mem_ctrls0.wrQLenPdf::10                     2                       # What write queue length does an incoming req see
system.mem_ctrls0.wrQLenPdf::11                     2                       # What write queue length does an incoming req see
system.mem_ctrls0.wrQLenPdf::12                     2                       # What write queue length does an incoming req see
system.mem_ctrls0.wrQLenPdf::13                     2                       # What write queue length does an incoming req see
system.mem_ctrls0.wrQLenPdf::14                     2                       # What write queue length does an incoming req see
system.mem_ctrls0.wrQLenPdf::15                363921                       # What write queue length does an incoming req see
system.mem_ctrls0.wrQLenPdf::16                393200                       # What write queue length does an incoming req see
system.mem_ctrls0.wrQLenPdf::17                631598                       # What write queue length does an incoming req see
system.mem_ctrls0.wrQLenPdf::18                683563                       # What write queue length does an incoming req see
system.mem_ctrls0.wrQLenPdf::19                692415                       # What write queue length does an incoming req see
system.mem_ctrls0.wrQLenPdf::20                693677                       # What write queue length does an incoming req see
system.mem_ctrls0.wrQLenPdf::21                693731                       # What write queue length does an incoming req see
system.mem_ctrls0.wrQLenPdf::22                696411                       # What write queue length does an incoming req see
system.mem_ctrls0.wrQLenPdf::23                701044                       # What write queue length does an incoming req see
system.mem_ctrls0.wrQLenPdf::24                703891                       # What write queue length does an incoming req see
system.mem_ctrls0.wrQLenPdf::25                696682                       # What write queue length does an incoming req see
system.mem_ctrls0.wrQLenPdf::26                693517                       # What write queue length does an incoming req see
system.mem_ctrls0.wrQLenPdf::27                691772                       # What write queue length does an incoming req see
system.mem_ctrls0.wrQLenPdf::28                690670                       # What write queue length does an incoming req see
system.mem_ctrls0.wrQLenPdf::29                690374                       # What write queue length does an incoming req see
system.mem_ctrls0.wrQLenPdf::30                689614                       # What write queue length does an incoming req see
system.mem_ctrls0.wrQLenPdf::31                684359                       # What write queue length does an incoming req see
system.mem_ctrls0.wrQLenPdf::32                684145                       # What write queue length does an incoming req see
system.mem_ctrls0.wrQLenPdf::33                  1216                       # What write queue length does an incoming req see
system.mem_ctrls0.wrQLenPdf::34                   187                       # What write queue length does an incoming req see
system.mem_ctrls0.wrQLenPdf::35                    27                       # What write queue length does an incoming req see
system.mem_ctrls0.wrQLenPdf::36                     3                       # What write queue length does an incoming req see
system.mem_ctrls0.wrQLenPdf::37                     0                       # What write queue length does an incoming req see
system.mem_ctrls0.wrQLenPdf::38                     0                       # What write queue length does an incoming req see
system.mem_ctrls0.wrQLenPdf::39                     0                       # What write queue length does an incoming req see
system.mem_ctrls0.wrQLenPdf::40                     0                       # What write queue length does an incoming req see
system.mem_ctrls0.wrQLenPdf::41                     0                       # What write queue length does an incoming req see
system.mem_ctrls0.wrQLenPdf::42                     0                       # What write queue length does an incoming req see
system.mem_ctrls0.wrQLenPdf::43                     0                       # What write queue length does an incoming req see
system.mem_ctrls0.wrQLenPdf::44                     0                       # What write queue length does an incoming req see
system.mem_ctrls0.wrQLenPdf::45                     0                       # What write queue length does an incoming req see
system.mem_ctrls0.wrQLenPdf::46                     0                       # What write queue length does an incoming req see
system.mem_ctrls0.wrQLenPdf::47                     0                       # What write queue length does an incoming req see
system.mem_ctrls0.wrQLenPdf::48                     0                       # What write queue length does an incoming req see
system.mem_ctrls0.wrQLenPdf::49                     0                       # What write queue length does an incoming req see
system.mem_ctrls0.wrQLenPdf::50                     0                       # What write queue length does an incoming req see
system.mem_ctrls0.wrQLenPdf::51                     0                       # What write queue length does an incoming req see
system.mem_ctrls0.wrQLenPdf::52                     0                       # What write queue length does an incoming req see
system.mem_ctrls0.wrQLenPdf::53                     0                       # What write queue length does an incoming req see
system.mem_ctrls0.wrQLenPdf::54                     0                       # What write queue length does an incoming req see
system.mem_ctrls0.wrQLenPdf::55                     0                       # What write queue length does an incoming req see
system.mem_ctrls0.wrQLenPdf::56                     0                       # What write queue length does an incoming req see
system.mem_ctrls0.wrQLenPdf::57                     0                       # What write queue length does an incoming req see
system.mem_ctrls0.wrQLenPdf::58                     0                       # What write queue length does an incoming req see
system.mem_ctrls0.wrQLenPdf::59                     0                       # What write queue length does an incoming req see
system.mem_ctrls0.wrQLenPdf::60                     0                       # What write queue length does an incoming req see
system.mem_ctrls0.wrQLenPdf::61                     0                       # What write queue length does an incoming req see
system.mem_ctrls0.wrQLenPdf::62                     0                       # What write queue length does an incoming req see
system.mem_ctrls0.wrQLenPdf::63                     0                       # What write queue length does an incoming req see
system.mem_ctrls0.bytesPerActivate::samples     19529013                       # Bytes accessed per row activation
system.mem_ctrls0.bytesPerActivate::mean    92.885649                       # Bytes accessed per row activation
system.mem_ctrls0.bytesPerActivate::gmean    83.177075                       # Bytes accessed per row activation
system.mem_ctrls0.bytesPerActivate::stdev    54.109208                       # Bytes accessed per row activation
system.mem_ctrls0.bytesPerActivate::0-127     13634010     69.81%     69.81% # Bytes accessed per row activation
system.mem_ctrls0.bytesPerActivate::128-255      5252569     26.90%     96.71% # Bytes accessed per row activation
system.mem_ctrls0.bytesPerActivate::256-383       556107      2.85%     99.56% # Bytes accessed per row activation
system.mem_ctrls0.bytesPerActivate::384-511        71738      0.37%     99.93% # Bytes accessed per row activation
system.mem_ctrls0.bytesPerActivate::512-639        11230      0.06%     99.98% # Bytes accessed per row activation
system.mem_ctrls0.bytesPerActivate::640-767         2311      0.01%     99.99% # Bytes accessed per row activation
system.mem_ctrls0.bytesPerActivate::768-895          668      0.00%    100.00% # Bytes accessed per row activation
system.mem_ctrls0.bytesPerActivate::896-1023          213      0.00%    100.00% # Bytes accessed per row activation
system.mem_ctrls0.bytesPerActivate::1024-1151          167      0.00%    100.00% # Bytes accessed per row activation
system.mem_ctrls0.bytesPerActivate::total     19529013                       # Bytes accessed per row activation
system.mem_ctrls0.rdPerTurnAround::samples       683948                       # Reads before turning the bus around for writes
system.mem_ctrls0.rdPerTurnAround::mean     24.222866                       # Reads before turning the bus around for writes
system.mem_ctrls0.rdPerTurnAround::gmean    23.600457                       # Reads before turning the bus around for writes
system.mem_ctrls0.rdPerTurnAround::stdev    40.171418                       # Reads before turning the bus around for writes
system.mem_ctrls0.rdPerTurnAround::0-2047       683947    100.00%    100.00% # Reads before turning the bus around for writes
system.mem_ctrls0.rdPerTurnAround::32768-34815            1      0.00%    100.00% # Reads before turning the bus around for writes
system.mem_ctrls0.rdPerTurnAround::total       683948                       # Reads before turning the bus around for writes
system.mem_ctrls0.wrPerTurnAround::samples       683948                       # Writes before turning the bus around for reads
system.mem_ctrls0.wrPerTurnAround::mean     17.217726                       # Writes before turning the bus around for reads
system.mem_ctrls0.wrPerTurnAround::gmean    17.181158                       # Writes before turning the bus around for reads
system.mem_ctrls0.wrPerTurnAround::stdev     1.124684                       # Writes before turning the bus around for reads
system.mem_ctrls0.wrPerTurnAround::16          291611     42.64%     42.64% # Writes before turning the bus around for reads
system.mem_ctrls0.wrPerTurnAround::17           21604      3.16%     45.80% # Writes before turning the bus around for reads
system.mem_ctrls0.wrPerTurnAround::18          312109     45.63%     91.43% # Writes before turning the bus around for reads
system.mem_ctrls0.wrPerTurnAround::19           48969      7.16%     98.59% # Writes before turning the bus around for reads
system.mem_ctrls0.wrPerTurnAround::20            8309      1.21%     99.80% # Writes before turning the bus around for reads
system.mem_ctrls0.wrPerTurnAround::21            1205      0.18%     99.98% # Writes before turning the bus around for reads
system.mem_ctrls0.wrPerTurnAround::22             129      0.02%    100.00% # Writes before turning the bus around for reads
system.mem_ctrls0.wrPerTurnAround::23               8      0.00%    100.00% # Writes before turning the bus around for reads
system.mem_ctrls0.wrPerTurnAround::24               2      0.00%    100.00% # Writes before turning the bus around for reads
system.mem_ctrls0.wrPerTurnAround::25               1      0.00%    100.00% # Writes before turning the bus around for reads
system.mem_ctrls0.wrPerTurnAround::32               1      0.00%    100.00% # Writes before turning the bus around for reads
system.mem_ctrls0.wrPerTurnAround::total       683948                       # Writes before turning the bus around for reads
system.mem_ctrls0.totQLat                443058697352                       # Total ticks spent queuing
system.mem_ctrls0.totMemAccLat           753693416102                       # Total ticks spent from burst creation until serviced by the DRAM
system.mem_ctrls0.totBusLat               82835925000                       # Total ticks spent in databus transfers
system.mem_ctrls0.avgQLat                    26743.15                       # Average queueing delay per DRAM burst
system.mem_ctrls0.avgBusLat                   5000.00                       # Average bus latency per DRAM burst
system.mem_ctrls0.avgMemAccLat               45493.15                       # Average memory access latency per DRAM burst
system.mem_ctrls0.avgRdBW                      168.83                       # Average DRAM read bandwidth in MiByte/s
system.mem_ctrls0.avgWrBW                      120.00                       # Average achieved write bandwidth in MiByte/s
system.mem_ctrls0.avgRdBWSys                   168.83                       # Average system read bandwidth in MiByte/s
system.mem_ctrls0.avgWrBWSys                   120.00                       # Average system write bandwidth in MiByte/s
system.mem_ctrls0.peakBW                     12800.00                       # Theoretical peak bandwidth in MiByte/s
system.mem_ctrls0.busUtil                        2.26                       # Data bus utilization in percentage
system.mem_ctrls0.busUtilRead                    1.32                       # Data bus utilization in percentage for reads
system.mem_ctrls0.busUtilWrite                   0.94                       # Data bus utilization in percentage for writes
system.mem_ctrls0.avgRdQLen                      1.02                       # Average read queue length when enqueuing
system.mem_ctrls0.avgWrQLen                     24.90                       # Average write queue length when enqueuing
system.mem_ctrls0.readRowHits                 7051078                       # Number of row buffer hits during reads
system.mem_ctrls0.writeRowHits                1763113                       # Number of row buffer hits during writes
system.mem_ctrls0.readRowHitRate                42.56                       # Row buffer hit rate for reads
system.mem_ctrls0.writeRowHitRate               14.97                       # Row buffer hit rate for writes
system.mem_ctrls0.avgGap                    221581.77                       # Average gap between requests
system.mem_ctrls0.pageHitRate                   31.10                       # Row buffer hit rate, read and write combined
system.mem_ctrls0_0.actEnergy             69753001920                       # Energy for activate commands per rank (pJ)
system.mem_ctrls0_0.preEnergy             37074584580                       # Energy for precharge commands per rank (pJ)
system.mem_ctrls0_0.readEnergy            59168751600                       # Energy for read commands per rank (pJ)
system.mem_ctrls0_0.writeEnergy           30752993160                       # Energy for write commands per rank (pJ)
system.mem_ctrls0_0.refreshEnergy        515376869280.000122                       # Energy for refresh commands per rank (pJ)
system.mem_ctrls0_0.actBackEnergy        597759213180                       # Energy for active background per rank (pJ)
system.mem_ctrls0_0.preBackEnergy         17069499840                       # Energy for precharge background per rank (pJ)
system.mem_ctrls0_0.actPowerDownEnergy   1722302680500                       # Energy for active power-down per rank (pJ)
system.mem_ctrls0_0.prePowerDownEnergy   375236069760                       # Energy for precharge power-down per rank (pJ)
system.mem_ctrls0_0.selfRefreshEnergy     73000373475                       # Energy for self refresh per rank (pJ)
system.mem_ctrls0_0.totalEnergy          3497715099375                       # Total energy per rank (pJ)
system.mem_ctrls0_0.averagePower           556.930509                       # Core power per rank (mW)
system.mem_ctrls0_0.totalIdleTime        4924530648162                       # Total Idle time Per DRAM Rank
system.mem_ctrls0_0.memoryStateTime::IDLE  20025735029                       # Time in different power states
system.mem_ctrls0_0.memoryStateTime::REF 218377618000                       # Time in different power states
system.mem_ctrls0_0.memoryStateTime::SREF 170367583447                       # Time in different power states
system.mem_ctrls0_0.memoryStateTime::PRE_PDN 977170603954                       # Time in different power states
system.mem_ctrls0_0.memoryStateTime::ACT 1117409695815                       # Time in different power states
system.mem_ctrls0_0.memoryStateTime::ACT_PDN 3776992460761                       # Time in different power states
system.mem_ctrls0_1.actEnergy             69684222300                       # Energy for activate commands per rank (pJ)
system.mem_ctrls0_1.preEnergy             37038019755                       # Energy for precharge commands per rank (pJ)
system.mem_ctrls0_1.readEnergy            59120949300                       # Energy for read commands per rank (pJ)
system.mem_ctrls0_1.writeEnergy           30717878220                       # Energy for write commands per rank (pJ)
system.mem_ctrls0_1.refreshEnergy        515427884400.000122                       # Energy for refresh commands per rank (pJ)
system.mem_ctrls0_1.actBackEnergy        597536379090                       # Energy for active background per rank (pJ)
system.mem_ctrls0_1.preBackEnergy         17089902720                       # Energy for precharge background per rank (pJ)
system.mem_ctrls0_1.actPowerDownEnergy   1721621890740                       # Energy for active power-down per rank (pJ)
system.mem_ctrls0_1.prePowerDownEnergy   375700601280                       # Energy for precharge power-down per rank (pJ)
system.mem_ctrls0_1.selfRefreshEnergy     73278816510                       # Energy for self refresh per rank (pJ)
system.mem_ctrls0_1.totalEnergy          3497444141055                       # Total energy per rank (pJ)
system.mem_ctrls0_1.averagePower           556.887362                       # Core power per rank (mW)
system.mem_ctrls0_1.totalIdleTime        4924952542141                       # Total Idle time Per DRAM Rank
system.mem_ctrls0_1.memoryStateTime::IDLE  20091391866                       # Time in different power states
system.mem_ctrls0_1.memoryStateTime::REF 218400182000                       # Time in different power states
system.mem_ctrls0_1.memoryStateTime::SREF 171071961782                       # Time in different power states
system.mem_ctrls0_1.memoryStateTime::PRE_PDN 978384352885                       # Time in different power states
system.mem_ctrls0_1.memoryStateTime::ACT 1116899580999                       # Time in different power states
system.mem_ctrls0_1.memoryStateTime::ACT_PDN 3775496227474                       # Time in different power states
system.mem_ctrls1.pwrStateResidencyTicks::UNDEFINED 26265445056873                       # Cumulative time (in ticks) in various power states
system.mem_ctrls1.bytes_read::cpu.inst            128                       # Number of bytes read from this memory
system.mem_ctrls1.bytes_read::cpu.data            128                       # Number of bytes read from this memory
system.mem_ctrls1.bytes_read::switch_cpus.inst          896                       # Number of bytes read from this memory
system.mem_ctrls1.bytes_read::switch_cpus.data    879836992                       # Number of bytes read from this memory
system.mem_ctrls1.bytes_read::switch_cpus_1.data    179974272                       # Number of bytes read from this memory
system.mem_ctrls1.bytes_read::total        1059812416                       # Number of bytes read from this memory
system.mem_ctrls1.bytes_inst_read::cpu.inst          128                       # Number of instructions bytes read from this memory
system.mem_ctrls1.bytes_inst_read::switch_cpus.inst          896                       # Number of instructions bytes read from this memory
system.mem_ctrls1.bytes_inst_read::total         1024                       # Number of instructions bytes read from this memory
system.mem_ctrls1.bytes_written::writebacks    753196416                       # Number of bytes written to this memory
system.mem_ctrls1.bytes_written::total      753196416                       # Number of bytes written to this memory
system.mem_ctrls1.num_reads::cpu.inst               2                       # Number of read requests responded to by this memory
system.mem_ctrls1.num_reads::cpu.data               2                       # Number of read requests responded to by this memory
system.mem_ctrls1.num_reads::switch_cpus.inst           14                       # Number of read requests responded to by this memory
system.mem_ctrls1.num_reads::switch_cpus.data     13747453                       # Number of read requests responded to by this memory
system.mem_ctrls1.num_reads::switch_cpus_1.data      2812098                       # Number of read requests responded to by this memory
system.mem_ctrls1.num_reads::total           16559569                       # Number of read requests responded to by this memory
system.mem_ctrls1.num_writes::writebacks     11768694                       # Number of write requests responded to by this memory
system.mem_ctrls1.num_writes::total          11768694                       # Number of write requests responded to by this memory
system.mem_ctrls1.bw_read::cpu.inst                20                       # Total read bandwidth from this memory (bytes/s)
system.mem_ctrls1.bw_read::cpu.data                20                       # Total read bandwidth from this memory (bytes/s)
system.mem_ctrls1.bw_read::switch_cpus.inst          143                       # Total read bandwidth from this memory (bytes/s)
system.mem_ctrls1.bw_read::switch_cpus.data    140093765                       # Total read bandwidth from this memory (bytes/s)
system.mem_ctrls1.bw_read::switch_cpus_1.data     28656755                       # Total read bandwidth from this memory (bytes/s)
system.mem_ctrls1.bw_read::total            168750703                       # Total read bandwidth from this memory (bytes/s)
system.mem_ctrls1.bw_inst_read::cpu.inst           20                       # Instruction read bandwidth from this memory (bytes/s)
system.mem_ctrls1.bw_inst_read::switch_cpus.inst          143                       # Instruction read bandwidth from this memory (bytes/s)
system.mem_ctrls1.bw_inst_read::total             163                       # Instruction read bandwidth from this memory (bytes/s)
system.mem_ctrls1.bw_write::writebacks      119929171                       # Write bandwidth from this memory (bytes/s)
system.mem_ctrls1.bw_write::total           119929171                       # Write bandwidth from this memory (bytes/s)
system.mem_ctrls1.bw_total::writebacks      119929171                       # Total bandwidth to/from this memory (bytes/s)
system.mem_ctrls1.bw_total::cpu.inst               20                       # Total bandwidth to/from this memory (bytes/s)
system.mem_ctrls1.bw_total::cpu.data               20                       # Total bandwidth to/from this memory (bytes/s)
system.mem_ctrls1.bw_total::switch_cpus.inst          143                       # Total bandwidth to/from this memory (bytes/s)
system.mem_ctrls1.bw_total::switch_cpus.data    140093765                       # Total bandwidth to/from this memory (bytes/s)
system.mem_ctrls1.bw_total::switch_cpus_1.data     28656755                       # Total bandwidth to/from this memory (bytes/s)
system.mem_ctrls1.bw_total::total           288679875                       # Total bandwidth to/from this memory (bytes/s)
system.mem_ctrls1.readReqs                   16559569                       # Number of read requests accepted
system.mem_ctrls1.writeReqs                  11768694                       # Number of write requests accepted
system.mem_ctrls1.readBursts                 16559569                       # Number of DRAM read bursts, including those serviced by the write queue
system.mem_ctrls1.writeBursts                11768694                       # Number of DRAM write bursts, including those merged in the write queue
system.mem_ctrls1.bytesReadDRAM            1059812416                       # Total number of bytes read from DRAM
system.mem_ctrls1.bytesReadWrQ                      0                       # Total number of bytes read from write queue
system.mem_ctrls1.bytesWritten              753194816                       # Total number of bytes written to DRAM
system.mem_ctrls1.bytesReadSys             1059812416                       # Total read bytes from the system interface side
system.mem_ctrls1.bytesWrittenSys           753196416                       # Total written bytes from the system interface side
system.mem_ctrls1.servicedByWrQ                     0                       # Number of DRAM read bursts serviced by the write queue
system.mem_ctrls1.mergedWrBursts                    0                       # Number of DRAM write bursts merged with an existing one
system.mem_ctrls1.neitherReadNorWriteReqs            0                       # Number of requests that are neither read nor write
system.mem_ctrls1.perBankRdBursts::0          1034074                       # Per bank write bursts
system.mem_ctrls1.perBankRdBursts::1          1034516                       # Per bank write bursts
system.mem_ctrls1.perBankRdBursts::2          1035020                       # Per bank write bursts
system.mem_ctrls1.perBankRdBursts::3          1036127                       # Per bank write bursts
system.mem_ctrls1.perBankRdBursts::4          1035438                       # Per bank write bursts
system.mem_ctrls1.perBankRdBursts::5          1036128                       # Per bank write bursts
system.mem_ctrls1.perBankRdBursts::6          1036176                       # Per bank write bursts
system.mem_ctrls1.perBankRdBursts::7          1035937                       # Per bank write bursts
system.mem_ctrls1.perBankRdBursts::8          1036127                       # Per bank write bursts
system.mem_ctrls1.perBankRdBursts::9          1035673                       # Per bank write bursts
system.mem_ctrls1.perBankRdBursts::10         1035313                       # Per bank write bursts
system.mem_ctrls1.perBankRdBursts::11         1033956                       # Per bank write bursts
system.mem_ctrls1.perBankRdBursts::12         1034467                       # Per bank write bursts
system.mem_ctrls1.perBankRdBursts::13         1033532                       # Per bank write bursts
system.mem_ctrls1.perBankRdBursts::14         1033067                       # Per bank write bursts
system.mem_ctrls1.perBankRdBursts::15         1034018                       # Per bank write bursts
system.mem_ctrls1.perBankWrBursts::0           734927                       # Per bank write bursts
system.mem_ctrls1.perBankWrBursts::1           735323                       # Per bank write bursts
system.mem_ctrls1.perBankWrBursts::2           735713                       # Per bank write bursts
system.mem_ctrls1.perBankWrBursts::3           736680                       # Per bank write bursts
system.mem_ctrls1.perBankWrBursts::4           735924                       # Per bank write bursts
system.mem_ctrls1.perBankWrBursts::5           736492                       # Per bank write bursts
system.mem_ctrls1.perBankWrBursts::6           736468                       # Per bank write bursts
system.mem_ctrls1.perBankWrBursts::7           736178                       # Per bank write bursts
system.mem_ctrls1.perBankWrBursts::8           736397                       # Per bank write bursts
system.mem_ctrls1.perBankWrBursts::9           735884                       # Per bank write bursts
system.mem_ctrls1.perBankWrBursts::10          735686                       # Per bank write bursts
system.mem_ctrls1.perBankWrBursts::11          734501                       # Per bank write bursts
system.mem_ctrls1.perBankWrBursts::12          735154                       # Per bank write bursts
system.mem_ctrls1.perBankWrBursts::13          734431                       # Per bank write bursts
system.mem_ctrls1.perBankWrBursts::14          733985                       # Per bank write bursts
system.mem_ctrls1.perBankWrBursts::15          734926                       # Per bank write bursts
system.mem_ctrls1.numRdRetry                        0                       # Number of times read queue was full causing retry
system.mem_ctrls1.numWrRetry                        0                       # Number of times write queue was full causing retry
system.mem_ctrls1.totGap                 6280343649387                       # Total gap between requests
system.mem_ctrls1.readPktSize::0                    0                       # Read request sizes (log2)
system.mem_ctrls1.readPktSize::1                    0                       # Read request sizes (log2)
system.mem_ctrls1.readPktSize::2                    0                       # Read request sizes (log2)
system.mem_ctrls1.readPktSize::3                    0                       # Read request sizes (log2)
system.mem_ctrls1.readPktSize::4                    0                       # Read request sizes (log2)
system.mem_ctrls1.readPktSize::5                    0                       # Read request sizes (log2)
system.mem_ctrls1.readPktSize::6             16559569                       # Read request sizes (log2)
system.mem_ctrls1.writePktSize::0                   0                       # Write request sizes (log2)
system.mem_ctrls1.writePktSize::1                   0                       # Write request sizes (log2)
system.mem_ctrls1.writePktSize::2                   0                       # Write request sizes (log2)
system.mem_ctrls1.writePktSize::3                   0                       # Write request sizes (log2)
system.mem_ctrls1.writePktSize::4                   0                       # Write request sizes (log2)
system.mem_ctrls1.writePktSize::5                   0                       # Write request sizes (log2)
system.mem_ctrls1.writePktSize::6            11768694                       # Write request sizes (log2)
system.mem_ctrls1.rdQLenPdf::0               15663127                       # What read queue length does an incoming req see
system.mem_ctrls1.rdQLenPdf::1                 729458                       # What read queue length does an incoming req see
system.mem_ctrls1.rdQLenPdf::2                 158539                       # What read queue length does an incoming req see
system.mem_ctrls1.rdQLenPdf::3                   8445                       # What read queue length does an incoming req see
system.mem_ctrls1.rdQLenPdf::4                      0                       # What read queue length does an incoming req see
system.mem_ctrls1.rdQLenPdf::5                      0                       # What read queue length does an incoming req see
system.mem_ctrls1.rdQLenPdf::6                      0                       # What read queue length does an incoming req see
system.mem_ctrls1.rdQLenPdf::7                      0                       # What read queue length does an incoming req see
system.mem_ctrls1.rdQLenPdf::8                      0                       # What read queue length does an incoming req see
system.mem_ctrls1.rdQLenPdf::9                      0                       # What read queue length does an incoming req see
system.mem_ctrls1.rdQLenPdf::10                     0                       # What read queue length does an incoming req see
system.mem_ctrls1.rdQLenPdf::11                     0                       # What read queue length does an incoming req see
system.mem_ctrls1.rdQLenPdf::12                     0                       # What read queue length does an incoming req see
system.mem_ctrls1.rdQLenPdf::13                     0                       # What read queue length does an incoming req see
system.mem_ctrls1.rdQLenPdf::14                     0                       # What read queue length does an incoming req see
system.mem_ctrls1.rdQLenPdf::15                     0                       # What read queue length does an incoming req see
system.mem_ctrls1.rdQLenPdf::16                     0                       # What read queue length does an incoming req see
system.mem_ctrls1.rdQLenPdf::17                     0                       # What read queue length does an incoming req see
system.mem_ctrls1.rdQLenPdf::18                     0                       # What read queue length does an incoming req see
system.mem_ctrls1.rdQLenPdf::19                     0                       # What read queue length does an incoming req see
system.mem_ctrls1.rdQLenPdf::20                     0                       # What read queue length does an incoming req see
system.mem_ctrls1.rdQLenPdf::21                     0                       # What read queue length does an incoming req see
system.mem_ctrls1.rdQLenPdf::22                     0                       # What read queue length does an incoming req see
system.mem_ctrls1.rdQLenPdf::23                     0                       # What read queue length does an incoming req see
system.mem_ctrls1.rdQLenPdf::24                     0                       # What read queue length does an incoming req see
system.mem_ctrls1.rdQLenPdf::25                     0                       # What read queue length does an incoming req see
system.mem_ctrls1.rdQLenPdf::26                     0                       # What read queue length does an incoming req see
system.mem_ctrls1.rdQLenPdf::27                     0                       # What read queue length does an incoming req see
system.mem_ctrls1.rdQLenPdf::28                     0                       # What read queue length does an incoming req see
system.mem_ctrls1.rdQLenPdf::29                     0                       # What read queue length does an incoming req see
system.mem_ctrls1.rdQLenPdf::30                     0                       # What read queue length does an incoming req see
system.mem_ctrls1.rdQLenPdf::31                     0                       # What read queue length does an incoming req see
system.mem_ctrls1.wrQLenPdf::0                      2                       # What write queue length does an incoming req see
system.mem_ctrls1.wrQLenPdf::1                      2                       # What write queue length does an incoming req see
system.mem_ctrls1.wrQLenPdf::2                      2                       # What write queue length does an incoming req see
system.mem_ctrls1.wrQLenPdf::3                      2                       # What write queue length does an incoming req see
system.mem_ctrls1.wrQLenPdf::4                      2                       # What write queue length does an incoming req see
system.mem_ctrls1.wrQLenPdf::5                      2                       # What write queue length does an incoming req see
system.mem_ctrls1.wrQLenPdf::6                      2                       # What write queue length does an incoming req see
system.mem_ctrls1.wrQLenPdf::7                      2                       # What write queue length does an incoming req see
system.mem_ctrls1.wrQLenPdf::8                      2                       # What write queue length does an incoming req see
system.mem_ctrls1.wrQLenPdf::9                      2                       # What write queue length does an incoming req see
system.mem_ctrls1.wrQLenPdf::10                     2                       # What write queue length does an incoming req see
system.mem_ctrls1.wrQLenPdf::11                     2                       # What write queue length does an incoming req see
system.mem_ctrls1.wrQLenPdf::12                     2                       # What write queue length does an incoming req see
system.mem_ctrls1.wrQLenPdf::13                     2                       # What write queue length does an incoming req see
system.mem_ctrls1.wrQLenPdf::14                     2                       # What write queue length does an incoming req see
system.mem_ctrls1.wrQLenPdf::15                363202                       # What write queue length does an incoming req see
system.mem_ctrls1.wrQLenPdf::16                392421                       # What write queue length does an incoming req see
system.mem_ctrls1.wrQLenPdf::17                631070                       # What write queue length does an incoming req see
system.mem_ctrls1.wrQLenPdf::18                683214                       # What write queue length does an incoming req see
system.mem_ctrls1.wrQLenPdf::19                691942                       # What write queue length does an incoming req see
system.mem_ctrls1.wrQLenPdf::20                693217                       # What write queue length does an incoming req see
system.mem_ctrls1.wrQLenPdf::21                693276                       # What write queue length does an incoming req see
system.mem_ctrls1.wrQLenPdf::22                695919                       # What write queue length does an incoming req see
system.mem_ctrls1.wrQLenPdf::23                700818                       # What write queue length does an incoming req see
system.mem_ctrls1.wrQLenPdf::24                703458                       # What write queue length does an incoming req see
system.mem_ctrls1.wrQLenPdf::25                696472                       # What write queue length does an incoming req see
system.mem_ctrls1.wrQLenPdf::26                693398                       # What write queue length does an incoming req see
system.mem_ctrls1.wrQLenPdf::27                691287                       # What write queue length does an incoming req see
system.mem_ctrls1.wrQLenPdf::28                690370                       # What write queue length does an incoming req see
system.mem_ctrls1.wrQLenPdf::29                690032                       # What write queue length does an incoming req see
system.mem_ctrls1.wrQLenPdf::30                689264                       # What write queue length does an incoming req see
system.mem_ctrls1.wrQLenPdf::31                683995                       # What write queue length does an incoming req see
system.mem_ctrls1.wrQLenPdf::32                683752                       # What write queue length does an incoming req see
system.mem_ctrls1.wrQLenPdf::33                  1258                       # What write queue length does an incoming req see
system.mem_ctrls1.wrQLenPdf::34                   241                       # What write queue length does an incoming req see
system.mem_ctrls1.wrQLenPdf::35                    50                       # What write queue length does an incoming req see
system.mem_ctrls1.wrQLenPdf::36                     8                       # What write queue length does an incoming req see
system.mem_ctrls1.wrQLenPdf::37                     0                       # What write queue length does an incoming req see
system.mem_ctrls1.wrQLenPdf::38                     0                       # What write queue length does an incoming req see
system.mem_ctrls1.wrQLenPdf::39                     0                       # What write queue length does an incoming req see
system.mem_ctrls1.wrQLenPdf::40                     0                       # What write queue length does an incoming req see
system.mem_ctrls1.wrQLenPdf::41                     0                       # What write queue length does an incoming req see
system.mem_ctrls1.wrQLenPdf::42                     0                       # What write queue length does an incoming req see
system.mem_ctrls1.wrQLenPdf::43                     0                       # What write queue length does an incoming req see
system.mem_ctrls1.wrQLenPdf::44                     0                       # What write queue length does an incoming req see
system.mem_ctrls1.wrQLenPdf::45                     0                       # What write queue length does an incoming req see
system.mem_ctrls1.wrQLenPdf::46                     0                       # What write queue length does an incoming req see
system.mem_ctrls1.wrQLenPdf::47                     0                       # What write queue length does an incoming req see
system.mem_ctrls1.wrQLenPdf::48                     0                       # What write queue length does an incoming req see
system.mem_ctrls1.wrQLenPdf::49                     0                       # What write queue length does an incoming req see
system.mem_ctrls1.wrQLenPdf::50                     0                       # What write queue length does an incoming req see
system.mem_ctrls1.wrQLenPdf::51                     0                       # What write queue length does an incoming req see
system.mem_ctrls1.wrQLenPdf::52                     0                       # What write queue length does an incoming req see
system.mem_ctrls1.wrQLenPdf::53                     0                       # What write queue length does an incoming req see
system.mem_ctrls1.wrQLenPdf::54                     0                       # What write queue length does an incoming req see
system.mem_ctrls1.wrQLenPdf::55                     0                       # What write queue length does an incoming req see
system.mem_ctrls1.wrQLenPdf::56                     0                       # What write queue length does an incoming req see
system.mem_ctrls1.wrQLenPdf::57                     0                       # What write queue length does an incoming req see
system.mem_ctrls1.wrQLenPdf::58                     0                       # What write queue length does an incoming req see
system.mem_ctrls1.wrQLenPdf::59                     0                       # What write queue length does an incoming req see
system.mem_ctrls1.wrQLenPdf::60                     0                       # What write queue length does an incoming req see
system.mem_ctrls1.wrQLenPdf::61                     0                       # What write queue length does an incoming req see
system.mem_ctrls1.wrQLenPdf::62                     0                       # What write queue length does an incoming req see
system.mem_ctrls1.wrQLenPdf::63                     0                       # What write queue length does an incoming req see
system.mem_ctrls1.bytesPerActivate::samples     19517695                       # Bytes accessed per row activation
system.mem_ctrls1.bytesPerActivate::mean    92.890382                       # Bytes accessed per row activation
system.mem_ctrls1.bytesPerActivate::gmean    83.181725                       # Bytes accessed per row activation
system.mem_ctrls1.bytesPerActivate::stdev    54.117786                       # Bytes accessed per row activation
system.mem_ctrls1.bytesPerActivate::0-127     13623894     69.80%     69.80% # Bytes accessed per row activation
system.mem_ctrls1.bytesPerActivate::128-255      5251899     26.91%     96.71% # Bytes accessed per row activation
system.mem_ctrls1.bytesPerActivate::256-383       555503      2.85%     99.56% # Bytes accessed per row activation
system.mem_ctrls1.bytesPerActivate::384-511        71752      0.37%     99.92% # Bytes accessed per row activation
system.mem_ctrls1.bytesPerActivate::512-639        11270      0.06%     99.98% # Bytes accessed per row activation
system.mem_ctrls1.bytesPerActivate::640-767         2325      0.01%     99.99% # Bytes accessed per row activation
system.mem_ctrls1.bytesPerActivate::768-895          633      0.00%    100.00% # Bytes accessed per row activation
system.mem_ctrls1.bytesPerActivate::896-1023          252      0.00%    100.00% # Bytes accessed per row activation
system.mem_ctrls1.bytesPerActivate::1024-1151          167      0.00%    100.00% # Bytes accessed per row activation
system.mem_ctrls1.bytesPerActivate::total     19517695                       # Bytes accessed per row activation
system.mem_ctrls1.rdPerTurnAround::samples       683574                       # Reads before turning the bus around for writes
system.mem_ctrls1.rdPerTurnAround::mean     24.224984                       # Reads before turning the bus around for writes
system.mem_ctrls1.rdPerTurnAround::gmean    23.604620                       # Reads before turning the bus around for writes
system.mem_ctrls1.rdPerTurnAround::stdev    40.158361                       # Reads before turning the bus around for writes
system.mem_ctrls1.rdPerTurnAround::0-2047       683573    100.00%    100.00% # Reads before turning the bus around for writes
system.mem_ctrls1.rdPerTurnAround::32768-34815            1      0.00%    100.00% # Reads before turning the bus around for writes
system.mem_ctrls1.rdPerTurnAround::total       683574                       # Reads before turning the bus around for writes
system.mem_ctrls1.wrPerTurnAround::samples       683573                       # Writes before turning the bus around for reads
system.mem_ctrls1.wrPerTurnAround::mean     17.216392                       # Writes before turning the bus around for reads
system.mem_ctrls1.wrPerTurnAround::gmean    17.179842                       # Writes before turning the bus around for reads
system.mem_ctrls1.wrPerTurnAround::stdev     1.124318                       # Writes before turning the bus around for reads
system.mem_ctrls1.wrPerTurnAround::16          291816     42.69%     42.69% # Writes before turning the bus around for reads
system.mem_ctrls1.wrPerTurnAround::17           21698      3.17%     45.86% # Writes before turning the bus around for reads
system.mem_ctrls1.wrPerTurnAround::18          311432     45.56%     91.42% # Writes before turning the bus around for reads
system.mem_ctrls1.wrPerTurnAround::19           48957      7.16%     98.59% # Writes before turning the bus around for reads
system.mem_ctrls1.wrPerTurnAround::20            8436      1.23%     99.82% # Writes before turning the bus around for reads
system.mem_ctrls1.wrPerTurnAround::21            1111      0.16%     99.98% # Writes before turning the bus around for reads
system.mem_ctrls1.wrPerTurnAround::22             101      0.01%    100.00% # Writes before turning the bus around for reads
system.mem_ctrls1.wrPerTurnAround::23              21      0.00%    100.00% # Writes before turning the bus around for reads
system.mem_ctrls1.wrPerTurnAround::24               1      0.00%    100.00% # Writes before turning the bus around for reads
system.mem_ctrls1.wrPerTurnAround::total       683573                       # Writes before turning the bus around for reads
system.mem_ctrls1.totQLat                443169678309                       # Total ticks spent queuing
system.mem_ctrls1.totMemAccLat           753661597059                       # Total ticks spent from burst creation until serviced by the DRAM
system.mem_ctrls1.totBusLat               82797845000                       # Total ticks spent in databus transfers
system.mem_ctrls1.avgQLat                    26762.15                       # Average queueing delay per DRAM burst
system.mem_ctrls1.avgBusLat                   5000.00                       # Average bus latency per DRAM burst
system.mem_ctrls1.avgMemAccLat               45512.15                       # Average memory access latency per DRAM burst
system.mem_ctrls1.avgRdBW                      168.75                       # Average DRAM read bandwidth in MiByte/s
system.mem_ctrls1.avgWrBW                      119.93                       # Average achieved write bandwidth in MiByte/s
system.mem_ctrls1.avgRdBWSys                   168.75                       # Average system read bandwidth in MiByte/s
system.mem_ctrls1.avgWrBWSys                   119.93                       # Average system write bandwidth in MiByte/s
system.mem_ctrls1.peakBW                     12800.00                       # Theoretical peak bandwidth in MiByte/s
system.mem_ctrls1.busUtil                        2.26                       # Data bus utilization in percentage
system.mem_ctrls1.busUtilRead                    1.32                       # Data bus utilization in percentage for reads
system.mem_ctrls1.busUtilWrite                   0.94                       # Data bus utilization in percentage for writes
system.mem_ctrls1.avgRdQLen                      1.02                       # Average read queue length when enqueuing
system.mem_ctrls1.avgWrQLen                     24.90                       # Average write queue length when enqueuing
system.mem_ctrls1.readRowHits                 7048330                       # Number of row buffer hits during reads
system.mem_ctrls1.writeRowHits                1762204                       # Number of row buffer hits during writes
system.mem_ctrls1.readRowHitRate                42.56                       # Row buffer hit rate for reads
system.mem_ctrls1.writeRowHitRate               14.97                       # Row buffer hit rate for writes
system.mem_ctrls1.avgGap                    221698.86                       # Average gap between requests
system.mem_ctrls1.pageHitRate                   31.10                       # Row buffer hit rate, read and write combined
system.mem_ctrls1_0.actEnergy             69701765280                       # Energy for activate commands per rank (pJ)
system.mem_ctrls1_0.preEnergy             37047344070                       # Energy for precharge commands per rank (pJ)
system.mem_ctrls1_0.readEnergy            59143590240                       # Energy for read commands per rank (pJ)
system.mem_ctrls1_0.writeEnergy           30733809660                       # Energy for write commands per rank (pJ)
system.mem_ctrls1_0.refreshEnergy        515510246160.000122                       # Energy for refresh commands per rank (pJ)
system.mem_ctrls1_0.actBackEnergy        596900661510                       # Energy for active background per rank (pJ)
system.mem_ctrls1_0.preBackEnergy         17101053600                       # Energy for precharge background per rank (pJ)
system.mem_ctrls1_0.actPowerDownEnergy   1721982856350                       # Energy for active power-down per rank (pJ)
system.mem_ctrls1_0.prePowerDownEnergy   375776895360                       # Energy for precharge power-down per rank (pJ)
system.mem_ctrls1_0.selfRefreshEnergy     73477061115                       # Energy for self refresh per rank (pJ)
system.mem_ctrls1_0.totalEnergy          3497604423105                       # Total energy per rank (pJ)
system.mem_ctrls1_0.averagePower           556.912887                       # Core power per rank (mW)
system.mem_ctrls1_0.totalIdleTime        4926308022238                       # Total Idle time Per DRAM Rank
system.mem_ctrls1_0.memoryStateTime::IDLE  20134183140                       # Time in different power states
system.mem_ctrls1_0.memoryStateTime::REF 218435892000                       # Time in different power states
system.mem_ctrls1_0.memoryStateTime::SREF 171443063277                       # Time in different power states
system.mem_ctrls1_0.memoryStateTime::PRE_PDN 978581848894                       # Time in different power states
system.mem_ctrls1_0.memoryStateTime::ACT 1115465599628                       # Time in different power states
system.mem_ctrls1_0.memoryStateTime::ACT_PDN 3776283110067                       # Time in different power states
system.mem_ctrls1_1.actEnergy             69654627000                       # Energy for activate commands per rank (pJ)
system.mem_ctrls1_1.preEnergy             37022289480                       # Energy for precharge commands per rank (pJ)
system.mem_ctrls1_1.readEnergy            59091732420                       # Energy for read commands per rank (pJ)
system.mem_ctrls1_1.writeEnergy           30698621640                       # Energy for write commands per rank (pJ)
system.mem_ctrls1_1.refreshEnergy        515531143920.000122                       # Energy for refresh commands per rank (pJ)
system.mem_ctrls1_1.actBackEnergy        597512820990                       # Energy for active background per rank (pJ)
system.mem_ctrls1_1.preBackEnergy         17098419840                       # Energy for precharge background per rank (pJ)
system.mem_ctrls1_1.actPowerDownEnergy   1721014771200                       # Energy for active power-down per rank (pJ)
system.mem_ctrls1_1.prePowerDownEnergy   375925840800                       # Energy for precharge power-down per rank (pJ)
system.mem_ctrls1_1.selfRefreshEnergy     73623520455                       # Energy for self refresh per rank (pJ)
system.mem_ctrls1_1.totalEnergy          3497401564815                       # Total energy per rank (pJ)
system.mem_ctrls1_1.averagePower           556.880585                       # Core power per rank (mW)
system.mem_ctrls1_1.totalIdleTime        4924977517140                       # Total Idle time Per DRAM Rank
system.mem_ctrls1_1.memoryStateTime::IDLE  20115124900                       # Time in different power states
system.mem_ctrls1_1.memoryStateTime::REF 218445302000                       # Time in different power states
system.mem_ctrls1_1.memoryStateTime::SREF 171846293136                       # Time in different power states
system.mem_ctrls1_1.memoryStateTime::PRE_PDN 978973542864                       # Time in different power states
system.mem_ctrls1_1.memoryStateTime::ACT 1116805752966                       # Time in different power states
system.mem_ctrls1_1.memoryStateTime::ACT_PDN 3774157681140                       # Time in different power states
system.pwrStateResidencyTicks::UNDEFINED 26265445056873                       # Cumulative time (in ticks) in various power states
system.cpu.branchPred.lookups                       0                       # Number of BP lookups
system.cpu.branchPred.condPredicted                 0                       # Number of conditional branches predicted
system.cpu.branchPred.condIncorrect                 0                       # Number of conditional branches incorrect
system.cpu.branchPred.BTBLookups                    0                       # Number of BTB lookups
system.cpu.branchPred.BTBHits                       0                       # Number of BTB hits
system.cpu.branchPred.BTBCorrect                    0                       # Number of correct BTB predictions (this stat may not work properly.
system.cpu.branchPred.BTBHitPct                   nan                       # BTB Hit Percentage
system.cpu.branchPred.usedRAS                       0                       # Number of times the RAS was used to get a target.
system.cpu.branchPred.RASInCorrect                  0                       # Number of incorrect RAS predictions.
system.cpu.branchPred.indirectLookups               0                       # Number of indirect predictor lookups.
system.cpu.branchPred.indirectHits                  0                       # Number of indirect target hits.
system.cpu.branchPred.indirectMisses                0                       # Number of indirect misses.
system.cpu.branchPredindirectMispredicted            0                       # Number of mispredicted indirect branches.
system.cpu_voltage_domain.voltage                   1                       # Voltage in Volts
system.cpu_clk_domain.clock                       333                       # Clock period in ticks
system.cpu.dtb.fetch_hits                           0                       # ITB hits
system.cpu.dtb.fetch_misses                         0                       # ITB misses
system.cpu.dtb.fetch_acv                            0                       # ITB acv
system.cpu.dtb.fetch_accesses                       0                       # ITB accesses
system.cpu.dtb.read_hits                           14                       # DTB read hits
system.cpu.dtb.read_misses                          0                       # DTB read misses
system.cpu.dtb.read_acv                             0                       # DTB read access violations
system.cpu.dtb.read_accesses                       14                       # DTB read accesses
system.cpu.dtb.write_hits                           1                       # DTB write hits
system.cpu.dtb.write_misses                         0                       # DTB write misses
system.cpu.dtb.write_acv                            0                       # DTB write access violations
system.cpu.dtb.write_accesses                       1                       # DTB write accesses
system.cpu.dtb.data_hits                           15                       # DTB hits
system.cpu.dtb.data_misses                          0                       # DTB misses
system.cpu.dtb.data_acv                             0                       # DTB access violations
system.cpu.dtb.data_accesses                       15                       # DTB accesses
system.cpu.itb.fetch_hits                           4                       # ITB hits
system.cpu.itb.fetch_misses                         0                       # ITB misses
system.cpu.itb.fetch_acv                            0                       # ITB acv
system.cpu.itb.fetch_accesses                       4                       # ITB accesses
system.cpu.itb.read_hits                            0                       # DTB read hits
system.cpu.itb.read_misses                          0                       # DTB read misses
system.cpu.itb.read_acv                             0                       # DTB read access violations
system.cpu.itb.read_accesses                        0                       # DTB read accesses
system.cpu.itb.write_hits                           0                       # DTB write hits
system.cpu.itb.write_misses                         0                       # DTB write misses
system.cpu.itb.write_acv                            0                       # DTB write access violations
system.cpu.itb.write_accesses                       0                       # DTB write accesses
system.cpu.itb.data_hits                            0                       # DTB hits
system.cpu.itb.data_misses                          0                       # DTB misses
system.cpu.itb.data_acv                             0                       # DTB access violations
system.cpu.itb.data_accesses                        0                       # DTB accesses
system.cpu.workload.num_syscalls                    0                       # Number of system calls
system.cpu.pwrStateResidencyTicks::ON    6280343697006                       # Cumulative time (in ticks) in various power states
system.cpu.numCycles                              987                       # number of cpu cycles simulated
system.cpu.numWorkItemsStarted                      0                       # number of work items this cpu started
system.cpu.numWorkItemsCompleted                    0                       # number of work items this cpu completed
system.cpu.fetch.icacheStallCycles                 63                       # Number of cycles fetch is stalled on an Icache miss
system.cpu.fetch.Insts                             29                       # Number of instructions fetch has processed
system.cpu.fetch.Cycles                             4                       # Number of cycles fetch has run and was not squashing or blocked
system.cpu.fetch.SquashCycles                       3                       # Number of cycles fetch has spent squashing
system.cpu.fetch.PendingDrainCycles                 8                       # Number of cycles fetch has spent waiting on pipes to drain
system.cpu.fetch.CacheLines                         4                       # Number of cache lines fetched
system.cpu.fetch.IcacheSquashes                     2                       # Number of outstanding Icache misses that were squashed
system.cpu.fetch.rateDist::samples                 76                       # Number of instructions fetched each cycle (Total)
system.cpu.fetch.rateDist::mean              0.381579                       # Number of instructions fetched each cycle (Total)
system.cpu.fetch.rateDist::stdev             1.657042                       # Number of instructions fetched each cycle (Total)
system.cpu.fetch.rateDist::underflows               0      0.00%      0.00% # Number of instructions fetched each cycle (Total)
system.cpu.fetch.rateDist::0                       72     94.74%     94.74% # Number of instructions fetched each cycle (Total)
system.cpu.fetch.rateDist::1                        0      0.00%     94.74% # Number of instructions fetched each cycle (Total)
system.cpu.fetch.rateDist::2                        0      0.00%     94.74% # Number of instructions fetched each cycle (Total)
system.cpu.fetch.rateDist::3                        0      0.00%     94.74% # Number of instructions fetched each cycle (Total)
system.cpu.fetch.rateDist::4                        0      0.00%     94.74% # Number of instructions fetched each cycle (Total)
system.cpu.fetch.rateDist::5                        1      1.32%     96.05% # Number of instructions fetched each cycle (Total)
system.cpu.fetch.rateDist::6                        0      0.00%     96.05% # Number of instructions fetched each cycle (Total)
system.cpu.fetch.rateDist::7                        0      0.00%     96.05% # Number of instructions fetched each cycle (Total)
system.cpu.fetch.rateDist::8                        3      3.95%    100.00% # Number of instructions fetched each cycle (Total)
system.cpu.fetch.rateDist::overflows                0      0.00%    100.00% # Number of instructions fetched each cycle (Total)
system.cpu.fetch.rateDist::min_value                0                       # Number of instructions fetched each cycle (Total)
system.cpu.fetch.rateDist::max_value                8                       # Number of instructions fetched each cycle (Total)
system.cpu.fetch.rateDist::total                   76                       # Number of instructions fetched each cycle (Total)
system.cpu.fetch.branchRate                         0                       # Number of branch fetches per cycle
[...]
system.switch_cpus_1.iq.FU_type_0::IprAccess            0      0.00%    100.00% # Type of FU issued
system.switch_cpus_1.iq.FU_type_0::InstPrefetch            0      0.00%    100.00% # Type of FU issued
system.switch_cpus_1.iq.FU_type_0::total    322078291                       # Type of FU issued
system.switch_cpus_1.iq.rate                 0.360202                       # Inst issue rate
system.switch_cpus_1.iq.fu_busy_cnt          57721535                       # FU busy when requested
system.switch_cpus_1.iq.fu_busy_rate         0.179216                       # FU busy rate (busy events/executed inst)
system.switch_cpus_1.iq.int_inst_queue_reads    947193703                       # Number of integer instruction queue reads
system.switch_cpus_1.iq.int_inst_queue_writes     23714447                       # Number of integer instruction queue writes
system.switch_cpus_1.iq.int_inst_queue_wakeup_accesses     22420044                       # Number of integer instruction queue wakeup accesses
system.switch_cpus_1.iq.fp_inst_queue_reads    648900155                       # Number of floating instruction queue reads
system.switch_cpus_1.iq.fp_inst_queue_writes    190321844                       # Number of floating instruction queue writes
system.switch_cpus_1.iq.fp_inst_queue_wakeup_accesses    182409567                       # Number of floating instruction queue wakeup accesses
system.switch_cpus_1.iq.int_alu_accesses     27554808                       # Number of integer alu accesses
system.switch_cpus_1.iq.fp_alu_accesses     352245018                       # Number of floating point alu accesses
system.switch_cpus_1.iew.lsq.thread0.forwLoads      8679712                       # Number of loads that had data forwarded from stores
system.switch_cpus_1.iew.lsq.thread0.invAddrLoads            0                       # Number of loads ignored due to an invalid address
system.switch_cpus_1.iew.lsq.thread0.squashedLoads      1753714                       # Number of loads squashed
system.switch_cpus_1.iew.lsq.thread0.ignoredResponses           15                       # Number of memory responses ignored because the instruction is squashed
system.switch_cpus_1.iew.lsq.thread0.memOrderViolation         1281                       # Number of memory ordering violations
system.switch_cpus_1.iew.lsq.thread0.squashedStores       656439                       # Number of stores squashed
system.switch_cpus_1.iew.lsq.thread0.invAddrSwpfs            0                       # Number of software prefetches ignored due to an invalid address
system.switch_cpus_1.iew.lsq.thread0.blockedLoads            0                       # Number of blocked loads due to partial load-store forwarding
system.switch_cpus_1.iew.lsq.thread0.rescheduledLoads            0                       # Number of loads that were rescheduled
system.switch_cpus_1.iew.lsq.thread0.cacheBlocked    124998644                       # Number of times an access to memory failed due to the cache being blocked
system.switch_cpus_1.iew.iewIdleCycles              0                       # Number of cycles IEW is idle
system.switch_cpus_1.iew.iewSquashCycles        62278                       # Number of cycles IEW is squashing
system.switch_cpus_1.iew.iewBlockCycles     634188128                       # Number of cycles IEW is blocking
system.switch_cpus_1.iew.iewUnblockCycles     53725941                       # Number of cycles IEW is unblocking
system.switch_cpus_1.iew.iewDispatchedInsts    207017543                       # Number of instructions dispatched to IQ
system.switch_cpus_1.iew.iewDispSquashedInsts           19                       # Number of squashed instructions skipped by dispatch
system.switch_cpus_1.iew.iewDispLoadInsts     38698299                       # Number of dispatched load instructions
system.switch_cpus_1.iew.iewDispStoreInsts     18518440                       # Number of dispatched store instructions
system.switch_cpus_1.iew.iewDispNonSpecInsts            0                       # Number of dispatched non-speculative instructions
system.switch_cpus_1.iew.iewIQFullEvents      2143286                       # Number of times the IQ has become full, causing a stall
system.switch_cpus_1.iew.iewLSQFullEvents     49842738                       # Number of times the LSQ has become full, causing a stall
system.switch_cpus_1.iew.memOrderViolationEvents         1281                       # Number of memory order violations
system.switch_cpus_1.iew.predictedTakenIncorrect         1292                       # Number of branches that were predicted taken incorrectly
system.switch_cpus_1.iew.predictedNotTakenIncorrect         8902                       # Number of branches that were predicted not taken incorrectly
system.switch_cpus_1.iew.branchMispredicts        10194                       # Number of branch mispredicts detected at execute
system.switch_cpus_1.iew.iewExecutedInsts    322070769                       # Number of executed instructions
system.switch_cpus_1.iew.iewExecLoadInsts    155342557                       # Number of load instructions executed
system.switch_cpus_1.iew.iewExecSquashedInsts         7509                       # Number of squashed instructions skipped in execute
system.switch_cpus_1.iew.exec_swp                   0                       # number of swp insts executed
system.switch_cpus_1.iew.exec_nop                   1                       # number of nop insts executed
system.switch_cpus_1.iew.exec_refs          173737462                       # number of memory reference insts executed
system.switch_cpus_1.iew.exec_branches        3140928                       # Number of branches executed
system.switch_cpus_1.iew.exec_stores         18394905                       # Number of stores executed
system.switch_cpus_1.iew.exec_rate           0.360193                       # Inst execution rate
system.switch_cpus_1.iew.wb_sent            205021565                       # cumulative count of insts sent to commit
system.switch_cpus_1.iew.wb_count           204829611                       # cumulative count of insts written-back
system.switch_cpus_1.iew.wb_producers       162611848                       # num instructions producing a value
system.switch_cpus_1.iew.wb_consumers       223289585                       # num instructions consuming a value
system.switch_cpus_1.iew.wb_rate             0.229075                       # insts written-back per cycle
system.switch_cpus_1.iew.wb_fanout           0.728255                       # average fanout of values written-back
system.switch_cpus_1.commit.commitSquashedInsts      7092458                       # The number of squashed insts skipped by commit
system.switch_cpus_1.commit.branchMispredicts        10194                       # The number of times a branch was mispredicted
system.switch_cpus_1.commit.committed_per_cycle::samples    893241979                       # Number of insts commited each cycle
system.switch_cpus_1.commit.committed_per_cycle::mean     0.223903                       # Number of insts commited each cycle
system.switch_cpus_1.commit.committed_per_cycle::stdev     1.215639                       # Number of insts commited each cycle
system.switch_cpus_1.commit.committed_per_cycle::underflows            0      0.00%      0.00% # Number of insts commited each cycle
system.switch_cpus_1.commit.committed_per_cycle::0    855385371     95.76%     95.76% # Number of insts commited each cycle
system.switch_cpus_1.commit.committed_per_cycle::1      7855657      0.88%     96.64% # Number of insts commited each cycle
system.switch_cpus_1.commit.committed_per_cycle::2      1812810      0.20%     96.84% # Number of insts commited each cycle
system.switch_cpus_1.commit.committed_per_cycle::3      2073279      0.23%     97.08% # Number of insts commited each cycle
system.switch_cpus_1.commit.committed_per_cycle::4      3025190      0.34%     97.42% # Number of insts commited each cycle
system.switch_cpus_1.commit.committed_per_cycle::5      3164112      0.35%     97.77% # Number of insts commited each cycle
system.switch_cpus_1.commit.committed_per_cycle::6      1844402      0.21%     97.98% # Number of insts commited each cycle
system.switch_cpus_1.commit.committed_per_cycle::7      1338107      0.15%     98.13% # Number of insts commited each cycle
system.switch_cpus_1.commit.committed_per_cycle::8     16743051      1.87%    100.00% # Number of insts commited each cycle
system.switch_cpus_1.commit.committed_per_cycle::overflows            0      0.00%    100.00% # Number of insts commited each cycle
system.switch_cpus_1.commit.committed_per_cycle::min_value            0                       # Number of insts commited each cycle
system.switch_cpus_1.commit.committed_per_cycle::max_value            8                       # Number of insts commited each cycle
system.switch_cpus_1.commit.committed_per_cycle::total    893241979                       # Number of insts commited each cycle
system.switch_cpus_1.commit.committedInsts    200000003                       # Number of instructions committed
system.switch_cpus_1.commit.committedOps    200000003                       # Number of ops (including micro ops) committed
system.switch_cpus_1.commit.swp_count               0                       # Number of s/w prefetches committed
system.switch_cpus_1.commit.refs             54806565                       # Number of memory references committed
system.switch_cpus_1.commit.loads            36944574                       # Number of loads committed
system.switch_cpus_1.commit.membars                 0                       # Number of memory barriers committed
system.switch_cpus_1.commit.branches          3002738                       # Number of branches committed
system.switch_cpus_1.commit.fp_insts        178679405                       # Number of committed floating point instructions.
system.switch_cpus_1.commit.int_insts        74337577                       # Number of committed integer instructions.
system.switch_cpus_1.commit.function_calls            0                       # Number of function calls committed.
system.switch_cpus_1.commit.op_class_0::No_OpClass            0      0.00%      0.00% # Class of committed instruction
system.switch_cpus_1.commit.op_class_0::IntAlu     20683879     10.34%     10.34% # Class of committed instruction
system.switch_cpus_1.commit.op_class_0::IntMult            0      0.00%     10.34% # Class of committed instruction
system.switch_cpus_1.commit.op_class_0::IntDiv            0      0.00%     10.34% # Class of committed instruction
system.switch_cpus_1.commit.op_class_0::FloatAdd     77818474     38.91%     49.25% # Class of committed instruction
system.switch_cpus_1.commit.op_class_0::FloatCmp            0      0.00%     49.25% # Class of committed instruction
system.switch_cpus_1.commit.op_class_0::FloatCvt            0      0.00%     49.25% # Class of committed instruction
system.switch_cpus_1.commit.op_class_0::FloatMult     44961786     22.48%     71.73% # Class of committed instruction
system.switch_cpus_1.commit.op_class_0::FloatMultAcc            0      0.00%     71.73% # Class of committed instruction
system.switch_cpus_1.commit.op_class_0::FloatDiv      1729299      0.86%     72.60% # Class of committed instruction
system.switch_cpus_1.commit.op_class_0::FloatMisc            0      0.00%     72.60% # Class of committed instruction
system.switch_cpus_1.commit.op_class_0::FloatSqrt            0      0.00%     72.60% # Class of committed instruction
system.switch_cpus_1.commit.op_class_0::SimdAdd            0      0.00%     72.60% # Class of committed instruction
system.switch_cpus_1.commit.op_class_0::SimdAddAcc            0      0.00%     72.60% # Class of committed instruction
system.switch_cpus_1.commit.op_class_0::SimdAlu            0      0.00%     72.60% # Class of committed instruction
system.switch_cpus_1.commit.op_class_0::SimdCmp            0      0.00%     72.60% # Class of committed instruction
system.switch_cpus_1.commit.op_class_0::SimdCvt            0      0.00%     72.60% # Class of committed instruction
system.switch_cpus_1.commit.op_class_0::SimdMisc            0      0.00%     72.60% # Class of committed instruction
system.switch_cpus_1.commit.op_class_0::SimdMult            0      0.00%     72.60% # Class of committed instruction
system.switch_cpus_1.commit.op_class_0::SimdMultAcc            0      0.00%     72.60% # Class of committed instruction
system.switch_cpus_1.commit.op_class_0::SimdShift            0      0.00%     72.60% # Class of committed instruction
system.switch_cpus_1.commit.op_class_0::SimdShiftAcc            0      0.00%     72.60% # Class of committed instruction
system.switch_cpus_1.commit.op_class_0::SimdSqrt            0      0.00%     72.60% # Class of committed instruction
system.switch_cpus_1.commit.op_class_0::SimdFloatAdd            0      0.00%     72.60% # Class of committed instruction
system.switch_cpus_1.commit.op_class_0::SimdFloatAlu            0      0.00%     72.60% # Class of committed instruction
system.switch_cpus_1.commit.op_class_0::SimdFloatCmp            0      0.00%     72.60% # Class of committed instruction
system.switch_cpus_1.commit.op_class_0::SimdFloatCvt            0      0.00%     72.60% # Class of committed instruction
system.switch_cpus_1.commit.op_class_0::SimdFloatDiv            0      0.00%     72.60% # Class of committed instruction
system.switch_cpus_1.commit.op_class_0::SimdFloatMisc            0      0.00%     72.60% # Class of committed instruction
system.switch_cpus_1.commit.op_class_0::SimdFloatMult            0      0.00%     72.60% # Class of committed instruction
system.switch_cpus_1.commit.op_class_0::SimdFloatMultAcc            0      0.00%     72.60% # Class of committed instruction
system.switch_cpus_1.commit.op_class_0::SimdFloatSqrt            0      0.00%     72.60% # Class of committed instruction
system.switch_cpus_1.commit.op_class_0::MemRead       636719      0.32%     72.92% # Class of committed instruction
system.switch_cpus_1.commit.op_class_0::MemWrite            0      0.00%     72.92% # Class of committed instruction
system.switch_cpus_1.commit.op_class_0::FloatMemRead     36307855     18.15%     91.07% # Class of committed instruction
system.switch_cpus_1.commit.op_class_0::FloatMemWrite     17861991      8.93%    100.00% # Class of committed instruction
system.switch_cpus_1.commit.op_class_0::IprAccess            0      0.00%    100.00% # Class of committed instruction
system.switch_cpus_1.commit.op_class_0::InstPrefetch            0      0.00%    100.00% # Class of committed instruction
system.switch_cpus_1.commit.op_class_0::total    200000003                       # Class of committed instruction
system.switch_cpus_1.commit.bw_lim_events     16743051                       # number cycles where commit BW limit reached
system.switch_cpus_1.rob.rob_reads         1082924060                       # The number of ROB reads
system.switch_cpus_1.rob.rob_writes         415104330                       # The number of ROB writes
system.switch_cpus_1.committedInsts         200000003                       # Number of Instructions Simulated
system.switch_cpus_1.committedOps           200000003                       # Number of Ops (including micro ops) Simulated
system.switch_cpus_1.cpi                     4.470807                       # CPI: Cycles Per Instruction
system.switch_cpus_1.cpi_total               4.470807                       # CPI: Total CPI of All Threads
system.switch_cpus_1.ipc                     0.223673                       # IPC: Instructions Per Cycle
system.switch_cpus_1.ipc_total               0.223673                       # IPC: Total IPC of All Threads
system.switch_cpus_1.int_regfile_reads      194984742                       # number of integer regfile reads
system.switch_cpus_1.int_regfile_writes      19280036                       # number of integer regfile writes
system.switch_cpus_1.fp_regfile_reads       271549997                       # number of floating regfile reads
system.switch_cpus_1.fp_regfile_writes      164066405                       # number of floating regfile writes
system.tol3bus.snoop_filter.tot_requests     76288142                       # Total number of requests made to the snoop filter.
system.tol3bus.snoop_filter.hit_single_requests     38141900                       # Number of requests hitting in the snoop filter with a single holder of the requested data.
system.tol3bus.snoop_filter.hit_multi_requests            0                       # Number of requests hitting in the snoop filter with multiple (>1) holders of the requested data.
system.tol3bus.snoop_filter.tot_snoops            760                       # Total number of snoops made to the snoop filter.
system.tol3bus.snoop_filter.hit_single_snoops          760                       # Number of snoops hitting in the snoop filter with a single holder of the requested data.
system.tol3bus.snoop_filter.hit_multi_snoops            0                       # Number of snoops hitting in the snoop filter with multiple (>1) holders of the requested data.
system.tol3bus.pwrStateResidencyTicks::UNDEFINED 26265445056873                       # Cumulative time (in ticks) in various power states
system.tol3bus.trans_dist::ReadResp           9536655                       # Transaction distribution
system.tol3bus.trans_dist::WritebackDirty     52150903                       # Transaction distribution
system.tol3bus.trans_dist::CleanEvict        19049768                       # Transaction distribution
system.tol3bus.trans_dist::ReadExReq         28609587                       # Transaction distribution
system.tol3bus.trans_dist::ReadExResp        28609586                       # Transaction distribution
system.tol3bus.trans_dist::ReadSharedReq      9536655                       # Transaction distribution
system.tol3bus.pkt_count_system.cpu.l2.mem_side::system.l3.cpu_side    114434383                       # Packet count per connected master and slave (bytes)
system.tol3bus.pkt_size_system.cpu.l2.mem_side::system.l3.cpu_side   4272153728                       # Cumulative packet size per connected master and slave (bytes)
system.tol3bus.snoops                        33058771                       # Total snoops (count)
system.tol3bus.snoopTraffic                1506863488                       # Total snoop traffic (bytes)
system.tol3bus.snoop_fanout::samples         71205013                       # Request fanout histogram
system.tol3bus.snoop_fanout::mean            0.000011                       # Request fanout histogram
system.tol3bus.snoop_fanout::stdev           0.003267                       # Request fanout histogram
system.tol3bus.snoop_fanout::underflows             0      0.00%      0.00% # Request fanout histogram
system.tol3bus.snoop_fanout::0               71204253    100.00%    100.00% # Request fanout histogram
system.tol3bus.snoop_fanout::1                    760      0.00%    100.00% # Request fanout histogram
system.tol3bus.snoop_fanout::overflows              0      0.00%    100.00% # Request fanout histogram
system.tol3bus.snoop_fanout::min_value              0                       # Request fanout histogram
system.tol3bus.snoop_fanout::max_value              1                       # Request fanout histogram
system.tol3bus.snoop_fanout::total           71205013                       # Request fanout histogram
system.tol3bus.reqLayer0.occupancy        34929802899                       # Layer occupancy (ticks)
system.tol3bus.reqLayer0.utilization              0.6                       # Layer utilization (%)
system.tol3bus.respLayer0.occupancy       25405396506                       # Layer occupancy (ticks)
system.tol3bus.respLayer0.utilization             0.4                       # Layer utilization (%)

---------- End Simulation Statistics   ----------
