
---------- Begin Simulation Statistics ----------
sim_seconds                                  1.190590                       # Number of seconds simulated
sim_ticks                                1190590395356                       # Number of ticks simulated
final_tick                               191241900310356                       # Number of ticks from beginning of simulation (restored from checkpoints and never reset)
sim_freq                                 1000000000000                       # Frequency of simulated ticks
host_inst_rate                                 398940                       # Simulator instruction rate (inst/s)
host_op_rate                                   398940                       # Simulator op (including micro ops) rate (op/s)
host_tick_rate                              395811667                       # Simulator tick rate (ticks/s)
host_mem_usage                                2538016                       # Number of bytes of host memory used
host_seconds                                  3007.97                       # Real time elapsed on the host
sim_insts                                  1200000007                       # Number of instructions simulated
sim_ops                                    1200000007                       # Number of ops (including micro ops) simulated
system.voltage_domain.voltage                       1                       # Voltage in Volts
system.clk_domain.clock                          1000                       # Clock period in ticks
system.mem_ctrls0.pwrStateResidencyTicks::UNDEFINED 191241900310356                       # Cumulative time (in ticks) in various power states
system.mem_ctrls0.bytes_read::cpu.inst            192                       # Number of bytes read from this memory
system.mem_ctrls0.bytes_read::cpu.data            192                       # Number of bytes read from this memory
system.mem_ctrls0.bytes_read::switch_cpus.inst        12992                       # Number of bytes read from this memory
system.mem_ctrls0.bytes_read::switch_cpus.data     20728000                       # Number of bytes read from this memory
system.mem_ctrls0.bytes_read::switch_cpus_1.inst          384                       # Number of bytes read from this memory
system.mem_ctrls0.bytes_read::switch_cpus_1.data      4647744                       # Number of bytes read from this memory
system.mem_ctrls0.bytes_read::total          25389504                       # Number of bytes read from this memory
system.mem_ctrls0.bytes_inst_read::cpu.inst          192                       # Number of instructions bytes read from this memory
system.mem_ctrls0.bytes_inst_read::switch_cpus.inst        12992                       # Number of instructions bytes read from this memory
system.mem_ctrls0.bytes_inst_read::switch_cpus_1.inst          384                       # Number of instructions bytes read from this memory
system.mem_ctrls0.bytes_inst_read::total        13568                       # Number of instructions bytes read from this memory
system.mem_ctrls0.bytes_written::writebacks     16722496                       # Number of bytes written to this memory
system.mem_ctrls0.bytes_written::total       16722496                       # Number of bytes written to this memory
system.mem_ctrls0.num_reads::cpu.inst               3                       # Number of read requests responded to by this memory
system.mem_ctrls0.num_reads::cpu.data               3                       # Number of read requests responded to by this memory
system.mem_ctrls0.num_reads::switch_cpus.inst          203                       # Number of read requests responded to by this memory
system.mem_ctrls0.num_reads::switch_cpus.data       323875                       # Number of read requests responded to by this memory
system.mem_ctrls0.num_reads::switch_cpus_1.inst            6                       # Number of read requests responded to by this memory
system.mem_ctrls0.num_reads::switch_cpus_1.data        72621                       # Number of read requests responded to by this memory
system.mem_ctrls0.num_reads::total             396711                       # Number of read requests responded to by this memory
system.mem_ctrls0.num_writes::writebacks       261289                       # Number of write requests responded to by this memory
system.mem_ctrls0.num_writes::total            261289                       # Number of write requests responded to by this memory
system.mem_ctrls0.bw_read::cpu.inst               161                       # Total read bandwidth from this memory (bytes/s)
system.mem_ctrls0.bw_read::cpu.data               161                       # Total read bandwidth from this memory (bytes/s)
system.mem_ctrls0.bw_read::switch_cpus.inst        10912                       # Total read bandwidth from this memory (bytes/s)
system.mem_ctrls0.bw_read::switch_cpus.data     17409850                       # Total read bandwidth from this memory (bytes/s)
system.mem_ctrls0.bw_read::switch_cpus_1.inst          323                       # Total read bandwidth from this memory (bytes/s)
system.mem_ctrls0.bw_read::switch_cpus_1.data      3903730                       # Total read bandwidth from this memory (bytes/s)
system.mem_ctrls0.bw_read::total             21325138                       # Total read bandwidth from this memory (bytes/s)
system.mem_ctrls0.bw_inst_read::cpu.inst          161                       # Instruction read bandwidth from this memory (bytes/s)
system.mem_ctrls0.bw_inst_read::switch_cpus.inst        10912                       # Instruction read bandwidth from this memory (bytes/s)
system.mem_ctrls0.bw_inst_read::switch_cpus_1.inst          323                       # Instruction read bandwidth from this memory (bytes/s)
system.mem_ctrls0.bw_inst_read::total           11396                       # Instruction read bandwidth from this memory (bytes/s)
system.mem_ctrls0.bw_write::writebacks       14045549                       # Write bandwidth from this memory (bytes/s)
system.mem_ctrls0.bw_write::total            14045549                       # Write bandwidth from this memory (bytes/s)
system.mem_ctrls0.bw_total::writebacks       14045549                       # Total bandwidth to/from this memory (bytes/s)
system.mem_ctrls0.bw_total::cpu.inst              161                       # Total bandwidth to/from this memory (bytes/s)
system.mem_ctrls0.bw_total::cpu.data              161                       # Total bandwidth to/from this memory (bytes/s)
system.mem_ctrls0.bw_total::switch_cpus.inst        10912                       # Total bandwidth to/from this memory (bytes/s)
system.mem_ctrls0.bw_total::switch_cpus.data     17409850                       # Total bandwidth to/from this memory (bytes/s)
system.mem_ctrls0.bw_total::switch_cpus_1.inst          323                       # Total bandwidth to/from this memory (bytes/s)
system.mem_ctrls0.bw_total::switch_cpus_1.data      3903730                       # Total bandwidth to/from this memory (bytes/s)
system.mem_ctrls0.bw_total::total            35370687                       # Total bandwidth to/from this memory (bytes/s)
system.mem_ctrls0.readReqs                     396711                       # Number of read requests accepted
system.mem_ctrls0.writeReqs                    261289                       # Number of write requests accepted
system.mem_ctrls0.readBursts                   396711                       # Number of DRAM read bursts, including those serviced by the write queue
system.mem_ctrls0.writeBursts                  261289                       # Number of DRAM write bursts, including those merged in the write queue
system.mem_ctrls0.bytesReadDRAM              25326016                       # Total number of bytes read from DRAM
system.mem_ctrls0.bytesReadWrQ                  63488                       # Total number of bytes read from write queue
system.mem_ctrls0.bytesWritten               16721088                       # Total number of bytes written to DRAM
system.mem_ctrls0.bytesReadSys               25389504                       # Total read bytes from the system interface side
system.mem_ctrls0.bytesWrittenSys            16722496                       # Total written bytes from the system interface side
system.mem_ctrls0.servicedByWrQ                   992                       # Number of DRAM read bursts serviced by the write queue
system.mem_ctrls0.mergedWrBursts                    0                       # Number of DRAM write bursts merged with an existing one
system.mem_ctrls0.neitherReadNorWriteReqs            0                       # Number of requests that are neither read nor write
system.mem_ctrls0.perBankRdBursts::0            25843                       # Per bank write bursts
system.mem_ctrls0.perBankRdBursts::1            25357                       # Per bank write bursts
system.mem_ctrls0.perBankRdBursts::2            26362                       # Per bank write bursts
system.mem_ctrls0.perBankRdBursts::3            25466                       # Per bank write bursts
system.mem_ctrls0.perBankRdBursts::4            23160                       # Per bank write bursts
system.mem_ctrls0.perBankRdBursts::5            23959                       # Per bank write bursts
system.mem_ctrls0.perBankRdBursts::6            24528                       # Per bank write bursts
system.mem_ctrls0.perBankRdBursts::7            25241                       # Per bank write bursts
system.mem_ctrls0.perBankRdBursts::8            25365                       # Per bank write bursts
system.mem_ctrls0.perBankRdBursts::9            24238                       # Per bank write bursts
system.mem_ctrls0.perBankRdBursts::10           24807                       # Per bank write bursts
system.mem_ctrls0.perBankRdBursts::11           24340                       # Per bank write bursts
system.mem_ctrls0.perBankRdBursts::12           22978                       # Per bank write bursts
system.mem_ctrls0.perBankRdBursts::13           23941                       # Per bank write bursts
system.mem_ctrls0.perBankRdBursts::14           24403                       # Per bank write bursts
system.mem_ctrls0.perBankRdBursts::15           25731                       # Per bank write bursts
system.mem_ctrls0.perBankWrBursts::0            17130                       # Per bank write bursts
system.mem_ctrls0.perBankWrBursts::1            16887                       # Per bank write bursts
system.mem_ctrls0.perBankWrBursts::2            17311                       # Per bank write bursts
system.mem_ctrls0.perBankWrBursts::3            16602                       # Per bank write bursts
system.mem_ctrls0.perBankWrBursts::4            14857                       # Per bank write bursts
system.mem_ctrls0.perBankWrBursts::5            15848                       # Per bank write bursts
system.mem_ctrls0.perBankWrBursts::6            16323                       # Per bank write bursts
system.mem_ctrls0.perBankWrBursts::7            16848                       # Per bank write bursts
system.mem_ctrls0.perBankWrBursts::8            16788                       # Per bank write bursts
system.mem_ctrls0.perBankWrBursts::9            16117                       # Per bank write bursts
system.mem_ctrls0.perBankWrBursts::10           16305                       # Per bank write bursts
system.mem_ctrls0.perBankWrBursts::11           16018                       # Per bank write bursts
system.mem_ctrls0.perBankWrBursts::12           15269                       # Per bank write bursts
system.mem_ctrls0.perBankWrBursts::13           15663                       # Per bank write bursts
system.mem_ctrls0.perBankWrBursts::14           16113                       # Per bank write bursts
system.mem_ctrls0.perBankWrBursts::15           17188                       # Per bank write bursts
system.mem_ctrls0.numRdRetry                        0                       # Number of times read queue was full causing retry
system.mem_ctrls0.numWrRetry                        0                       # Number of times write queue was full causing retry
system.mem_ctrls0.totGap                 1190567138769                       # Total gap between requests
system.mem_ctrls0.readPktSize::0                    0                       # Read request sizes (log2)
system.mem_ctrls0.readPktSize::1                    0                       # Read request sizes (log2)
system.mem_ctrls0.readPktSize::2                    0                       # Read request sizes (log2)
system.mem_ctrls0.readPktSize::3                    0                       # Read request sizes (log2)
system.mem_ctrls0.readPktSize::4                    0                       # Read request sizes (log2)
system.mem_ctrls0.readPktSize::5                    0                       # Read request sizes (log2)
system.mem_ctrls0.readPktSize::6               396711                       # Read request sizes (log2)
system.mem_ctrls0.writePktSize::0                   0                       # Write request sizes (log2)
system.mem_ctrls0.writePktSize::1                   0                       # Write request sizes (log2)
system.mem_ctrls0.writePktSize::2                   0                       # Write request sizes (log2)
system.mem_ctrls0.writePktSize::3                   0                       # Write request sizes (log2)
system.mem_ctrls0.writePktSize::4                   0                       # Write request sizes (log2)
system.mem_ctrls0.writePktSize::5                   0                       # Write request sizes (log2)
system.mem_ctrls0.writePktSize::6              261289                       # Write request sizes (log2)
system.mem_ctrls0.rdQLenPdf::0                 388963                       # What read queue length does an incoming req see
system.mem_ctrls0.rdQLenPdf::1                   6527                       # What read queue length does an incoming req see
system.mem_ctrls0.rdQLenPdf::2                    210                       # What read queue length does an incoming req see
system.mem_ctrls0.rdQLenPdf::3                     18                       # What read queue length does an incoming req see
system.mem_ctrls0.rdQLenPdf::4                      1                       # What read queue length does an incoming req see
system.mem_ctrls0.rdQLenPdf::5                      0                       # What read queue length does an incoming req see
system.mem_ctrls0.rdQLenPdf::6                      0                       # What read queue length does an incoming req see
system.mem_ctrls0.rdQLenPdf::7                      0                       # What read queue length does an incoming req see
system.mem_ctrls0.rdQLenPdf::8                      0                       # What read queue length does an incoming req see
system.mem_ctrls0.rdQLenPdf::9                      0                       # What read queue length does an incoming req see
system.mem_ctrls0.rdQLenPdf::10                     0                       # What read queue length does an incoming req see
system.mem_ctrls0.rdQLenPdf::11                     0                       # What read queue length does an incoming req see
system.mem_ctrls0.rdQLenPdf::12                     0                       # What read queue length does an incoming req see
system.mem_ctrls0.rdQLenPdf::13                     0                       # What read queue length does an incoming req see
system.mem_ctrls0.rdQLenPdf::14                     0                       # What read queue length does an incoming req see
system.mem_ctrls0.rdQLenPdf::15                     0                       # What read queue length does an incoming req see
system.mem_ctrls0.rdQLenPdf::16                     0                       # What read queue length does an incoming req see
system.mem_ctrls0.rdQLenPdf::17                     0                       # What read queue length does an incoming req see
system.mem_ctrls0.rdQLenPdf::18                     0                       # What read queue length does an incoming req see
system.mem_ctrls0.rdQLenPdf::19                     0                       # What read queue length does an incoming req see
system.mem_ctrls0.rdQLenPdf::20                     0                       # What read queue length does an incoming req see
system.mem_ctrls0.rdQLenPdf::21                     0                       # What read queue length does an incoming req see
system.mem_ctrls0.rdQLenPdf::22                     0                       # What read queue length does an incoming req see
system.mem_ctrls0.rdQLenPdf::23                     0                       # What read queue length does an incoming req see
system.mem_ctrls0.rdQLenPdf::24                     0                       # What read queue length does an incoming req see
system.mem_ctrls0.rdQLenPdf::25                     0                       # What read queue length does an incoming req see
system.mem_ctrls0.rdQLenPdf::26                     0                       # What read queue length does an incoming req see
system.mem_ctrls0.rdQLenPdf::27                     0                       # What read queue length does an incoming req see
system.mem_ctrls0.rdQLenPdf::28                     0                       # What read queue length does an incoming req see
system.mem_ctrls0.rdQLenPdf::29                     0                       # What read queue length does an incoming req see
system.mem_ctrls0.rdQLenPdf::30                     0                       # What read queue length does an incoming req see
system.mem_ctrls0.rdQLenPdf::31                     0                       # What read queue length does an incoming req see
system.mem_ctrls0.wrQLenPdf::0                      2                       # What write queue length does an incoming req see
system.mem_ctrls0.wrQLenPdf::1                      2                       # What write queue length does an incoming req see
system.mem_ctrls0.wrQLenPdf::2                      2                       # What write queue length does an incoming req see
system.mem_ctrls0.wrQLenPdf::3                      2                       # What write queue length does an incoming req see
system.mem_ctrls0.wrQLenPdf::4                      2                       # What write queue length does an incoming req see
system.mem_ctrls0.wrQLenPdf::5                      2                       # What write queue length does an incoming req see
system.mem_ctrls0.wrQLenPdf::6                      2                       # What write queue length does an incoming req see
system.mem_ctrls0.wrQLenPdf::7                      2                       # What write queue length does an incoming req see
system.mem_ctrls0.wrQLenPdf::8                      2                       # What write queue length does an incoming req see
system.mem_ctrls0.wrQLenPdf::9                      2                       # What write queue length does an incoming req see
system.mem_ctrls0.wrQLenPdf::10                     2                       # What write queue length does an incoming req see
system.mem_ctrls0.wrQLenPdf::11                     2                       # What write queue length does an incoming req see
system.mem_ctrls0.wrQLenPdf::12                     2                       # What write queue length does an incoming req see
system.mem_ctrls0.wrQLenPdf::13                     2                       # What write queue length does an incoming req see
system.mem_ctrls0.wrQLenPdf::14                     2                       # What write queue length does an incoming req see
system.mem_ctrls0.wrQLenPdf::15                 11269                       # What write queue length does an incoming req see
system.mem_ctrls0.wrQLenPdf::16                 11542                       # What write queue length does an incoming req see
system.mem_ctrls0.wrQLenPdf::17                 14426                       # What write queue length does an incoming req see
system.mem_ctrls0.wrQLenPdf::18                 14845                       # What write queue length does an incoming req see
system.mem_ctrls0.wrQLenPdf::19                 14921                       # What write queue length does an incoming req see
system.mem_ctrls0.wrQLenPdf::20                 14927                       # What write queue length does an incoming req see
system.mem_ctrls0.wrQLenPdf::21                 14919                       # What write queue length does an incoming req see
system.mem_ctrls0.wrQLenPdf::22                 14960                       # What write queue length does an incoming req see
system.mem_ctrls0.wrQLenPdf::23                 14969                       # What write queue length does an incoming req see
system.mem_ctrls0.wrQLenPdf::24                 14963                       # What write queue length does an incoming req see
system.mem_ctrls0.wrQLenPdf::25                 14958                       # What write queue length does an incoming req see
system.mem_ctrls0.wrQLenPdf::26                 14941                       # What write queue length does an incoming req see
system.mem_ctrls0.wrQLenPdf::27                 14965                       # What write queue length does an incoming req see
system.mem_ctrls0.wrQLenPdf::28                 14986                       # What write queue length does an incoming req see
system.mem_ctrls0.wrQLenPdf::29                 15008                       # What write queue length does an incoming req see
system.mem_ctrls0.wrQLenPdf::30                 14915                       # What write queue length does an incoming req see
system.mem_ctrls0.wrQLenPdf::31                 14829                       # What write queue length does an incoming req see
system.mem_ctrls0.wrQLenPdf::32                 14820                       # What write queue length does an incoming req see
system.mem_ctrls0.wrQLenPdf::33                    71                       # What write queue length does an incoming req see
system.mem_ctrls0.wrQLenPdf::34                    18                       # What write queue length does an incoming req see
system.mem_ctrls0.wrQLenPdf::35                     6                       # What write queue length does an incoming req see
system.mem_ctrls0.wrQLenPdf::36                     1                       # What write queue length does an incoming req see
system.mem_ctrls0.wrQLenPdf::37                     0                       # What write queue length does an incoming req see
system.mem_ctrls0.wrQLenPdf::38                     0                       # What write queue length does an incoming req see
system.mem_ctrls0.wrQLenPdf::39                     0                       # What write queue length does an incoming req see
system.mem_ctrls0.wrQLenPdf::40                     0                       # What write queue length does an incoming req see
system.mem_ctrls0.wrQLenPdf::41                     0                       # What write queue length does an incoming req see
system.mem_ctrls0.wrQLenPdf::42                     0                       # What write queue length does an incoming req see
system.mem_ctrls0.wrQLenPdf::43                     0                       # What write queue length does an incoming req see
system.mem_ctrls0.wrQLenPdf::44                     0                       # What write queue length does an incoming req see
system.mem_ctrls0.wrQLenPdf::45                     0                       # What write queue length does an incoming req see
system.mem_ctrls0.wrQLenPdf::46                     0                       # What write queue length does an incoming req see
system.mem_ctrls0.wrQLenPdf::47                     0                       # What write queue length does an incoming req see
system.mem_ctrls0.wrQLenPdf::48                     0                       # What write queue length does an incoming req see
system.mem_ctrls0.wrQLenPdf::49                     0                       # What write queue length does an incoming req see
system.mem_ctrls0.wrQLenPdf::50                     0                       # What write queue length does an incoming req see
system.mem_ctrls0.wrQLenPdf::51                     0                       # What write queue length does an incoming req see
system.mem_ctrls0.wrQLenPdf::52                     0                       # What write queue length does an incoming req see
system.mem_ctrls0.wrQLenPdf::53                     0                       # What write queue length does an incoming req see
system.mem_ctrls0.wrQLenPdf::54                     0                       # What write queue length does an incoming req see
system.mem_ctrls0.wrQLenPdf::55                     0                       # What write queue length does an incoming req see
system.mem_ctrls0.wrQLenPdf::56                     0                       # What write queue length does an incoming req see
system.mem_ctrls0.wrQLenPdf::57                     0                       # What write queue length does an incoming req see
system.mem_ctrls0.wrQLenPdf::58                     0                       # What write queue length does an incoming req see
system.mem_ctrls0.wrQLenPdf::59                     0                       # What write queue length does an incoming req see
system.mem_ctrls0.wrQLenPdf::60                     0                       # What write queue length does an incoming req see
system.mem_ctrls0.wrQLenPdf::61                     0                       # What write queue length does an incoming req see
system.mem_ctrls0.wrQLenPdf::62                     0                       # What write queue length does an incoming req see
system.mem_ctrls0.wrQLenPdf::63                     0                       # What write queue length does an incoming req see
system.mem_ctrls0.bytesPerActivate::samples       418959                       # Bytes accessed per row activation
system.mem_ctrls0.bytesPerActivate::mean   100.360904                       # Bytes accessed per row activation
system.mem_ctrls0.bytesPerActivate::gmean    81.939041                       # Bytes accessed per row activation
system.mem_ctrls0.bytesPerActivate::stdev   105.867380                       # Bytes accessed per row activation
system.mem_ctrls0.bytesPerActivate::0-127       322035     76.87%     76.87% # Bytes accessed per row activation
system.mem_ctrls0.bytesPerActivate::128-255        69513     16.59%     93.46% # Bytes accessed per row activation
system.mem_ctrls0.bytesPerActivate::256-383        14544      3.47%     96.93% # Bytes accessed per row activation
system.mem_ctrls0.bytesPerActivate::384-511         6650      1.59%     98.52% # Bytes accessed per row activation
system.mem_ctrls0.bytesPerActivate::512-639         2159      0.52%     99.03% # Bytes accessed per row activation
system.mem_ctrls0.bytesPerActivate::640-767          986      0.24%     99.27% # Bytes accessed per row activation
system.mem_ctrls0.bytesPerActivate::768-895          729      0.17%     99.44% # Bytes accessed per row activation
system.mem_ctrls0.bytesPerActivate::896-1023          527      0.13%     99.57% # Bytes accessed per row activation
system.mem_ctrls0.bytesPerActivate::1024-1151         1816      0.43%    100.00% # Bytes accessed per row activation
system.mem_ctrls0.bytesPerActivate::total       418959                       # Bytes accessed per row activation
system.mem_ctrls0.rdPerTurnAround::samples        14818                       # Reads before turning the bus around for writes
system.mem_ctrls0.rdPerTurnAround::mean     26.704481                       # Reads before turning the bus around for writes
system.mem_ctrls0.rdPerTurnAround::stdev   237.195359                       # Reads before turning the bus around for writes
system.mem_ctrls0.rdPerTurnAround::0-1023        14817     99.99%     99.99% # Reads before turning the bus around for writes
system.mem_ctrls0.rdPerTurnAround::28672-29695            1      0.01%    100.00% # Reads before turning the bus around for writes
system.mem_ctrls0.rdPerTurnAround::total        14818                       # Reads before turning the bus around for writes
system.mem_ctrls0.wrPerTurnAround::samples        14818                       # Writes before turning the bus around for reads
system.mem_ctrls0.wrPerTurnAround::mean     17.631732                       # Writes before turning the bus around for reads
system.mem_ctrls0.wrPerTurnAround::gmean    17.604907                       # Writes before turning the bus around for reads
system.mem_ctrls0.wrPerTurnAround::stdev     0.961686                       # Writes before turning the bus around for reads
system.mem_ctrls0.wrPerTurnAround::16            3361     22.68%     22.68% # Writes before turning the bus around for reads
system.mem_ctrls0.wrPerTurnAround::17             160      1.08%     23.76% # Writes before turning the bus around for reads
system.mem_ctrls0.wrPerTurnAround::18           10105     68.19%     91.96% # Writes before turning the bus around for reads
system.mem_ctrls0.wrPerTurnAround::19            1023      6.90%     98.86% # Writes before turning the bus around for reads
system.mem_ctrls0.wrPerTurnAround::20             131      0.88%     99.74% # Writes before turning the bus around for reads
system.mem_ctrls0.wrPerTurnAround::21              24      0.16%     99.91% # Writes before turning the bus around for reads
system.mem_ctrls0.wrPerTurnAround::22               7      0.05%     99.95% # Writes before turning the bus around for reads
system.mem_ctrls0.wrPerTurnAround::23               4      0.03%     99.98% # Writes before turning the bus around for reads
system.mem_ctrls0.wrPerTurnAround::24               1      0.01%     99.99% # Writes before turning the bus around for reads
system.mem_ctrls0.wrPerTurnAround::25               2      0.01%    100.00% # Writes before turning the bus around for reads
system.mem_ctrls0.wrPerTurnAround::total        14818                       # Writes before turning the bus around for reads
system.mem_ctrls0.totQLat                 18829184169                       # Total ticks spent queuing
system.mem_ctrls0.totMemAccLat            26248915419                       # Total ticks spent from burst creation until serviced by the DRAM
system.mem_ctrls0.totBusLat                1978595000                       # Total ticks spent in databus transfers
system.mem_ctrls0.avgQLat                    47582.21                       # Average queueing delay per DRAM burst
system.mem_ctrls0.avgBusLat                   5000.00                       # Average bus latency per DRAM burst
system.mem_ctrls0.avgMemAccLat               66332.21                       # Average memory access latency per DRAM burst
system.mem_ctrls0.avgRdBW                       21.27                       # Average DRAM read bandwidth in MiByte/s
system.mem_ctrls0.avgWrBW                       14.04                       # Average achieved write bandwidth in MiByte/s
system.mem_ctrls0.avgRdBWSys                    21.33                       # Average system read bandwidth in MiByte/s
system.mem_ctrls0.avgWrBWSys                    14.05                       # Average system write bandwidth in MiByte/s
system.mem_ctrls0.peakBW                     12800.00                       # Theoretical peak bandwidth in MiByte/s
system.mem_ctrls0.busUtil                        0.28                       # Data bus utilization in percentage
system.mem_ctrls0.busUtilRead                    0.17                       # Data bus utilization in percentage for reads
system.mem_ctrls0.busUtilWrite                   0.11                       # Data bus utilization in percentage for writes
system.mem_ctrls0.avgRdQLen                      1.00                       # Average read queue length when enqueuing
system.mem_ctrls0.avgWrQLen                     23.28                       # Average write queue length when enqueuing
system.mem_ctrls0.readRowHits                  187923                       # Number of row buffer hits during reads
system.mem_ctrls0.writeRowHits                  50104                       # Number of row buffer hits during writes
system.mem_ctrls0.readRowHitRate                47.49                       # Row buffer hit rate for reads
system.mem_ctrls0.writeRowHitRate               19.18                       # Row buffer hit rate for writes
system.mem_ctrls0.avgGap                   1809372.55                       # Average gap between requests
system.mem_ctrls0.pageHitRate                   36.23                       # Row buffer hit rate, read and write combined
system.mem_ctrls0_0.actEnergy              1509174660                       # Energy for activate commands per rank (pJ)
system.mem_ctrls0_0.preEnergy               802145355                       # Energy for precharge commands per rank (pJ)
system.mem_ctrls0_0.readEnergy             1427400240                       # Energy for read commands per rank (pJ)
system.mem_ctrls0_0.writeEnergy             688027320                       # Energy for write commands per rank (pJ)
system.mem_ctrls0_0.refreshEnergy        43837968720.000008                       # Energy for refresh commands per rank (pJ)
system.mem_ctrls0_0.actBackEnergy         24789257250                       # Energy for active background per rank (pJ)
system.mem_ctrls0_0.preBackEnergy          2101875360                       # Energy for precharge background per rank (pJ)
system.mem_ctrls0_0.actPowerDownEnergy   115204991400                       # Energy for active power-down per rank (pJ)
system.mem_ctrls0_0.prePowerDownEnergy    57534091680                       # Energy for precharge power-down per rank (pJ)
system.mem_ctrls0_0.selfRefreshEnergy    181878040380                       # Energy for self refresh per rank (pJ)
system.mem_ctrls0_0.totalEnergy          429787852335                       # Total energy per rank (pJ)
system.mem_ctrls0_0.averagePower           360.987165                       # Core power per rank (mW)
system.mem_ctrls0_0.totalIdleTime        1130635859392                       # Total Idle time Per DRAM Rank
system.mem_ctrls0_0.memoryStateTime::IDLE   3700742338                       # Time in different power states
system.mem_ctrls0_0.memoryStateTime::REF  18622574000                       # Time in different power states
system.mem_ctrls0_0.memoryStateTime::SREF 728250377356                       # Time in different power states
system.mem_ctrls0_0.memoryStateTime::PRE_PDN 149828811163                       # Time in different power states
system.mem_ctrls0_0.memoryStateTime::ACT  37544572318                       # Time in different power states
system.mem_ctrls0_0.memoryStateTime::ACT_PDN 252643318181                       # Time in different power states
system.mem_ctrls0_1.actEnergy              1482192600                       # Energy for activate commands per rank (pJ)
system.mem_ctrls0_1.preEnergy               787804050                       # Energy for precharge commands per rank (pJ)
system.mem_ctrls0_1.readEnergy             1398033420                       # Energy for read commands per rank (pJ)
system.mem_ctrls0_1.writeEnergy             675786420                       # Energy for write commands per rank (pJ)
system.mem_ctrls0_1.refreshEnergy        44510999520.000008                       # Energy for refresh commands per rank (pJ)
system.mem_ctrls0_1.actBackEnergy         24811878270                       # Energy for active background per rank (pJ)
system.mem_ctrls0_1.preBackEnergy          2131890720                       # Energy for precharge background per rank (pJ)
system.mem_ctrls0_1.actPowerDownEnergy   117183323460                       # Energy for active power-down per rank (pJ)
system.mem_ctrls0_1.prePowerDownEnergy    58615447200                       # Energy for precharge power-down per rank (pJ)
system.mem_ctrls0_1.selfRefreshEnergy    180225231105                       # Energy for self refresh per rank (pJ)
system.mem_ctrls0_1.totalEnergy          431839219245                       # Total energy per rank (pJ)
system.mem_ctrls0_1.averagePower           362.710146                       # Core power per rank (mW)
system.mem_ctrls0_1.totalIdleTime        1130344379709                       # Total Idle time Per DRAM Rank
system.mem_ctrls0_1.memoryStateTime::IDLE   3759743704                       # Time in different power states
system.mem_ctrls0_1.memoryStateTime::REF  18908282000                       # Time in different power states
system.mem_ctrls0_1.memoryStateTime::SREF 720964226356                       # Time in different power states
system.mem_ctrls0_1.memoryStateTime::PRE_PDN 152644423803                       # Time in different power states
system.mem_ctrls0_1.memoryStateTime::ACT  37332640251                       # Time in different power states
system.mem_ctrls0_1.memoryStateTime::ACT_PDN 256981079242                       # Time in different power states
system.mem_ctrls1.pwrStateResidencyTicks::UNDEFINED 191241900310356                       # Cumulative time (in ticks) in various power states
system.mem_ctrls1.bytes_read::cpu.inst            128                       # Number of bytes read from this memory
system.mem_ctrls1.bytes_read::cpu.data             64                       # Number of bytes read from this memory
system.mem_ctrls1.bytes_read::switch_cpus.inst        14080                       # Number of bytes read from this memory
system.mem_ctrls1.bytes_read::switch_cpus.data     20700928                       # Number of bytes read from this memory
system.mem_ctrls1.bytes_read::switch_cpus_1.inst          768                       # Number of bytes read from this memory
system.mem_ctrls1.bytes_read::switch_cpus_1.data      4652928                       # Number of bytes read from this memory
system.mem_ctrls1.bytes_read::total          25368896                       # Number of bytes read from this memory
system.mem_ctrls1.bytes_inst_read::cpu.inst          128                       # Number of instructions bytes read from this memory
system.mem_ctrls1.bytes_inst_read::switch_cpus.inst        14080                       # Number of instructions bytes read from this memory
system.mem_ctrls1.bytes_inst_read::switch_cpus_1.inst          768                       # Number of instructions bytes read from this memory
system.mem_ctrls1.bytes_inst_read::total        14976                       # Number of instructions bytes read from this memory
system.mem_ctrls1.bytes_written::writebacks     16725504                       # Number of bytes written to this memory
system.mem_ctrls1.bytes_written::total       16725504                       # Number of bytes written to this memory
system.mem_ctrls1.num_reads::cpu.inst               2                       # Number of read requests responded to by this memory
system.mem_ctrls1.num_reads::cpu.data               1                       # Number of read requests responded to by this memory
system.mem_ctrls1.num_reads::switch_cpus.inst          220                       # Number of read requests responded to by this memory
system.mem_ctrls1.num_reads::switch_cpus.data       323452                       # Number of read requests responded to by this memory
system.mem_ctrls1.num_reads::switch_cpus_1.inst           12                       # Number of read requests responded to by this memory
system.mem_ctrls1.num_reads::switch_cpus_1.data        72702                       # Number of read requests responded to by this memory
system.mem_ctrls1.num_reads::total             396389                       # Number of read requests responded to by this memory
system.mem_ctrls1.num_writes::writebacks       261336                       # Number of write requests responded to by this memory
system.mem_ctrls1.num_writes::total            261336                       # Number of write requests responded to by this memory
system.mem_ctrls1.bw_read::cpu.inst               108                       # Total read bandwidth from this memory (bytes/s)
system.mem_ctrls1.bw_read::cpu.data                54                       # Total read bandwidth from this memory (bytes/s)
system.mem_ctrls1.bw_read::switch_cpus.inst        11826                       # Total read bandwidth from this memory (bytes/s)
system.mem_ctrls1.bw_read::switch_cpus.data     17387112                       # Total read bandwidth from this memory (bytes/s)
system.mem_ctrls1.bw_read::switch_cpus_1.inst          645                       # Total read bandwidth from this memory (bytes/s)
system.mem_ctrls1.bw_read::switch_cpus_1.data      3908085                       # Total read bandwidth from this memory (bytes/s)
system.mem_ctrls1.bw_read::total             21307829                       # Total read bandwidth from this memory (bytes/s)
system.mem_ctrls1.bw_inst_read::cpu.inst          108                       # Instruction read bandwidth from this memory (bytes/s)
system.mem_ctrls1.bw_inst_read::switch_cpus.inst        11826                       # Instruction read bandwidth from this memory (bytes/s)
system.mem_ctrls1.bw_inst_read::switch_cpus_1.inst          645                       # Instruction read bandwidth from this memory (bytes/s)
system.mem_ctrls1.bw_inst_read::total           12579                       # Instruction read bandwidth from this memory (bytes/s)
system.mem_ctrls1.bw_write::writebacks       14048076                       # Write bandwidth from this memory (bytes/s)
system.mem_ctrls1.bw_write::total            14048076                       # Write bandwidth from this memory (bytes/s)
system.mem_ctrls1.bw_total::writebacks       14048076                       # Total bandwidth to/from this memory (bytes/s)
system.mem_ctrls1.bw_total::cpu.inst              108                       # Total bandwidth to/from this memory (bytes/s)
system.mem_ctrls1.bw_total::cpu.data               54                       # Total bandwidth to/from this memory (bytes/s)
system.mem_ctrls1.bw_total::switch_cpus.inst        11826                       # Total bandwidth to/from this memory (bytes/s)
system.mem_ctrls1.bw_total::switch_cpus.data     17387112                       # Total bandwidth to/from this memory (bytes/s)
system.mem_ctrls1.bw_total::switch_cpus_1.inst          645                       # Total bandwidth to/from this memory (bytes/s)
system.mem_ctrls1.bw_total::switch_cpus_1.data      3908085                       # Total bandwidth to/from this memory (bytes/s)
system.mem_ctrls1.bw_total::total            35355904                       # Total bandwidth to/from this memory (bytes/s)
system.mem_ctrls1.readReqs                     396389                       # Number of read requests accepted
system.mem_ctrls1.writeReqs                    261336                       # Number of write requests accepted
system.mem_ctrls1.readBursts                   396389                       # Number of DRAM read bursts, including those serviced by the write queue
system.mem_ctrls1.writeBursts                  261336                       # Number of DRAM write bursts, including those merged in the write queue
system.mem_ctrls1.bytesReadDRAM              25307072                       # Total number of bytes read from DRAM
system.mem_ctrls1.bytesReadWrQ                  61824                       # Total number of bytes read from write queue
system.mem_ctrls1.bytesWritten               16723968                       # Total number of bytes written to DRAM
system.mem_ctrls1.bytesReadSys               25368896                       # Total read bytes from the system interface side
system.mem_ctrls1.bytesWrittenSys            16725504                       # Total written bytes from the system interface side
system.mem_ctrls1.servicedByWrQ                   966                       # Number of DRAM read bursts serviced by the write queue
system.mem_ctrls1.mergedWrBursts                    2                       # Number of DRAM write bursts merged with an existing one
system.mem_ctrls1.neitherReadNorWriteReqs            0                       # Number of requests that are neither read nor write
system.mem_ctrls1.perBankRdBursts::0            25895                       # Per bank write bursts
system.mem_ctrls1.perBankRdBursts::1            25354                       # Per bank write bursts
system.mem_ctrls1.perBankRdBursts::2            26216                       # Per bank write bursts
system.mem_ctrls1.perBankRdBursts::3            25360                       # Per bank write bursts
system.mem_ctrls1.perBankRdBursts::4            23336                       # Per bank write bursts
system.mem_ctrls1.perBankRdBursts::5            24336                       # Per bank write bursts
system.mem_ctrls1.perBankRdBursts::6            24273                       # Per bank write bursts
system.mem_ctrls1.perBankRdBursts::7            25194                       # Per bank write bursts
system.mem_ctrls1.perBankRdBursts::8            25544                       # Per bank write bursts
system.mem_ctrls1.perBankRdBursts::9            23955                       # Per bank write bursts
system.mem_ctrls1.perBankRdBursts::10           24703                       # Per bank write bursts
system.mem_ctrls1.perBankRdBursts::11           24169                       # Per bank write bursts
system.mem_ctrls1.perBankRdBursts::12           22998                       # Per bank write bursts
system.mem_ctrls1.perBankRdBursts::13           23914                       # Per bank write bursts
system.mem_ctrls1.perBankRdBursts::14           24525                       # Per bank write bursts
system.mem_ctrls1.perBankRdBursts::15           25651                       # Per bank write bursts
system.mem_ctrls1.perBankWrBursts::0            17233                       # Per bank write bursts
system.mem_ctrls1.perBankWrBursts::1            16835                       # Per bank write bursts
system.mem_ctrls1.perBankWrBursts::2            17233                       # Per bank write bursts
system.mem_ctrls1.perBankWrBursts::3            16550                       # Per bank write bursts
system.mem_ctrls1.perBankWrBursts::4            14976                       # Per bank write bursts
system.mem_ctrls1.perBankWrBursts::5            16011                       # Per bank write bursts
system.mem_ctrls1.perBankWrBursts::6            16200                       # Per bank write bursts
system.mem_ctrls1.perBankWrBursts::7            16796                       # Per bank write bursts
system.mem_ctrls1.perBankWrBursts::8            16997                       # Per bank write bursts
system.mem_ctrls1.perBankWrBursts::9            15933                       # Per bank write bursts
system.mem_ctrls1.perBankWrBursts::10           16279                       # Per bank write bursts
system.mem_ctrls1.perBankWrBursts::11           16000                       # Per bank write bursts
system.mem_ctrls1.perBankWrBursts::12           15275                       # Per bank write bursts
system.mem_ctrls1.perBankWrBursts::13           15630                       # Per bank write bursts
system.mem_ctrls1.perBankWrBursts::14           16169                       # Per bank write bursts
system.mem_ctrls1.perBankWrBursts::15           17195                       # Per bank write bursts
system.mem_ctrls1.numRdRetry                        0                       # Number of times read queue was full causing retry
system.mem_ctrls1.numWrRetry                        0                       # Number of times write queue was full causing retry
system.mem_ctrls1.totGap                 1190566333575                       # Total gap between requests
system.mem_ctrls1.readPktSize::0                    0                       # Read request sizes (log2)
system.mem_ctrls1.readPktSize::1                    0                       # Read request sizes (log2)
system.mem_ctrls1.readPktSize::2                    0                       # Read request sizes (log2)
system.mem_ctrls1.readPktSize::3                    0                       # Read request sizes (log2)
system.mem_ctrls1.readPktSize::4                    0                       # Read request sizes (log2)
system.mem_ctrls1.readPktSize::5                    0                       # Read request sizes (log2)
system.mem_ctrls1.readPktSize::6               396389                       # Read request sizes (log2)
system.mem_ctrls1.writePktSize::0                   0                       # Write request sizes (log2)
system.mem_ctrls1.writePktSize::1                   0                       # Write request sizes (log2)
system.mem_ctrls1.writePktSize::2                   0                       # Write request sizes (log2)
system.mem_ctrls1.writePktSize::3                   0                       # Write request sizes (log2)
system.mem_ctrls1.writePktSize::4                   0                       # Write request sizes (log2)
system.mem_ctrls1.writePktSize::5                   0                       # Write request sizes (log2)
system.mem_ctrls1.writePktSize::6              261336                       # Write request sizes (log2)
system.mem_ctrls1.rdQLenPdf::0                 388519                       # What read queue length does an incoming req see
system.mem_ctrls1.rdQLenPdf::1                   6659                       # What read queue length does an incoming req see
system.mem_ctrls1.rdQLenPdf::2                    212                       # What read queue length does an incoming req see
system.mem_ctrls1.rdQLenPdf::3                     33                       # What read queue length does an incoming req see
system.mem_ctrls1.rdQLenPdf::4                      0                       # What read queue length does an incoming req see
system.mem_ctrls1.rdQLenPdf::5                      0                       # What read queue length does an incoming req see
system.mem_ctrls1.rdQLenPdf::6                      0                       # What read queue length does an incoming req see
system.mem_ctrls1.rdQLenPdf::7                      0                       # What read queue length does an incoming req see
system.mem_ctrls1.rdQLenPdf::8                      0                       # What read queue length does an incoming req see
system.mem_ctrls1.rdQLenPdf::9                      0                       # What read queue length does an incoming req see
system.mem_ctrls1.rdQLenPdf::10                     0                       # What read queue length does an incoming req see
system.mem_ctrls1.rdQLenPdf::11                     0                       # What read queue length does an incoming req see
system.mem_ctrls1.rdQLenPdf::12                     0                       # What read queue length does an incoming req see
system.mem_ctrls1.rdQLenPdf::13                     0                       # What read queue length does an incoming req see
system.mem_ctrls1.rdQLenPdf::14                     0                       # What read queue length does an incoming req see
system.mem_ctrls1.rdQLenPdf::15                     0                       # What read queue length does an incoming req see
system.mem_ctrls1.rdQLenPdf::16                     0                       # What read queue length does an incoming req see
system.mem_ctrls1.rdQLenPdf::17                     0                       # What read queue length does an incoming req see
system.mem_ctrls1.rdQLenPdf::18                     0                       # What read queue length does an incoming req see
system.mem_ctrls1.rdQLenPdf::19                     0                       # What read queue length does an incoming req see
system.mem_ctrls1.rdQLenPdf::20                     0                       # What read queue length does an incoming req see
system.mem_ctrls1.rdQLenPdf::21                     0                       # What read queue length does an incoming req see
system.mem_ctrls1.rdQLenPdf::22                     0                       # What read queue length does an incoming req see
system.mem_ctrls1.rdQLenPdf::23                     0                       # What read queue length does an incoming req see
system.mem_ctrls1.rdQLenPdf::24                     0                       # What read queue length does an incoming req see
system.mem_ctrls1.rdQLenPdf::25                     0                       # What read queue length does an incoming req see
system.mem_ctrls1.rdQLenPdf::26                     0                       # What read queue length does an incoming req see
system.mem_ctrls1.rdQLenPdf::27                     0                       # What read queue length does an incoming req see
system.mem_ctrls1.rdQLenPdf::28                     0                       # What read queue length does an incoming req see
system.mem_ctrls1.rdQLenPdf::29                     0                       # What read queue length does an incoming req see
system.mem_ctrls1.rdQLenPdf::30                     0                       # What read queue length does an incoming req see
system.mem_ctrls1.rdQLenPdf::31                     0                       # What read queue length does an incoming req see
system.mem_ctrls1.wrQLenPdf::0                      2                       # What write queue length does an incoming req see
system.mem_ctrls1.wrQLenPdf::1                      2                       # What write queue length does an incoming req see
system.mem_ctrls1.wrQLenPdf::2                      2                       # What write queue length does an incoming req see
system.mem_ctrls1.wrQLenPdf::3                      2                       # What write queue length does an incoming req see
system.mem_ctrls1.wrQLenPdf::4                      2                       # What write queue length does an incoming req see
system.mem_ctrls1.wrQLenPdf::5                      2                       # What write queue length does an incoming req see
system.mem_ctrls1.wrQLenPdf::6                      2                       # What write queue length does an incoming req see
system.mem_ctrls1.wrQLenPdf::7                      2                       # What write queue length does an incoming req see
system.mem_ctrls1.wrQLenPdf::8                      2                       # What write queue length does an incoming req see
system.mem_ctrls1.wrQLenPdf::9                      2                       # What write queue length does an incoming req see
system.mem_ctrls1.wrQLenPdf::10                     2                       # What write queue length does an incoming req see
system.mem_ctrls1.wrQLenPdf::11                     2                       # What write queue length does an incoming req see
system.mem_ctrls1.wrQLenPdf::12                     2                       # What write queue length does an incoming req see
system.mem_ctrls1.wrQLenPdf::13                     2                       # What write queue length does an incoming req see
system.mem_ctrls1.wrQLenPdf::14                     2                       # What write queue length does an incoming req see
system.mem_ctrls1.wrQLenPdf::15                 11234                       # What write queue length does an incoming req see
system.mem_ctrls1.wrQLenPdf::16                 11496                       # What write queue length does an incoming req see
system.mem_ctrls1.wrQLenPdf::17                 14425                       # What write queue length does an incoming req see
system.mem_ctrls1.wrQLenPdf::18                 14866                       # What write queue length does an incoming req see
system.mem_ctrls1.wrQLenPdf::19                 14931                       # What write queue length does an incoming req see
system.mem_ctrls1.wrQLenPdf::20                 14936                       # What write queue length does an incoming req see
system.mem_ctrls1.wrQLenPdf::21                 14950                       # What write queue length does an incoming req see
system.mem_ctrls1.wrQLenPdf::22                 14959                       # What write queue length does an incoming req see
system.mem_ctrls1.wrQLenPdf::23                 14990                       # What write queue length does an incoming req see
system.mem_ctrls1.wrQLenPdf::24                 14981                       # What write queue length does an incoming req see
system.mem_ctrls1.wrQLenPdf::25                 14963                       # What write queue length does an incoming req see
system.mem_ctrls1.wrQLenPdf::26                 14945                       # What write queue length does an incoming req see
system.mem_ctrls1.wrQLenPdf::27                 14982                       # What write queue length does an incoming req see
system.mem_ctrls1.wrQLenPdf::28                 14967                       # What write queue length does an incoming req see
system.mem_ctrls1.wrQLenPdf::29                 14985                       # What write queue length does an incoming req see
system.mem_ctrls1.wrQLenPdf::30                 14935                       # What write queue length does an incoming req see
system.mem_ctrls1.wrQLenPdf::31                 14837                       # What write queue length does an incoming req see
system.mem_ctrls1.wrQLenPdf::32                 14825                       # What write queue length does an incoming req see
system.mem_ctrls1.wrQLenPdf::33                    76                       # What write queue length does an incoming req see
system.mem_ctrls1.wrQLenPdf::34                    15                       # What write queue length does an incoming req see
system.mem_ctrls1.wrQLenPdf::35                     5                       # What write queue length does an incoming req see
system.mem_ctrls1.wrQLenPdf::36                     1                       # What write queue length does an incoming req see
system.mem_ctrls1.wrQLenPdf::37                     0                       # What write queue length does an incoming req see
system.mem_ctrls1.wrQLenPdf::38                     0                       # What write queue length does an incoming req see
system.mem_ctrls1.wrQLenPdf::39                     0                       # What write queue length does an incoming req see
system.mem_ctrls1.wrQLenPdf::40                     0                       # What write queue length does an incoming req see
system.mem_ctrls1.wrQLenPdf::41                     0                       # What write queue length does an incoming req see
system.mem_ctrls1.wrQLenPdf::42                     0                       # What write queue length does an incoming req see
system.mem_ctrls1.wrQLenPdf::43                     0                       # What write queue length does an incoming req see
system.mem_ctrls1.wrQLenPdf::44                     0                       # What write queue length does an incoming req see
system.mem_ctrls1.wrQLenPdf::45                     0                       # What write queue length does an incoming req see
system.mem_ctrls1.wrQLenPdf::46                     0                       # What write queue length does an incoming req see
system.mem_ctrls1.wrQLenPdf::47                     0                       # What write queue length does an incoming req see
system.mem_ctrls1.wrQLenPdf::48                     0                       # What write queue length does an incoming req see
system.mem_ctrls1.wrQLenPdf::49                     0                       # What write queue length does an incoming req see
system.mem_ctrls1.wrQLenPdf::50                     0                       # What write queue length does an incoming req see
system.mem_ctrls1.wrQLenPdf::51                     0                       # What write queue length does an incoming req see
system.mem_ctrls1.wrQLenPdf::52                     0                       # What write queue length does an incoming req see
system.mem_ctrls1.wrQLenPdf::53                     0                       # What write queue length does an incoming req see
system.mem_ctrls1.wrQLenPdf::54                     0                       # What write queue length does an incoming req see
system.mem_ctrls1.wrQLenPdf::55                     0                       # What write queue length does an incoming req see
system.mem_ctrls1.wrQLenPdf::56                     0                       # What write queue length does an incoming req see
system.mem_ctrls1.wrQLenPdf::57                     0                       # What write queue length does an incoming req see
system.mem_ctrls1.wrQLenPdf::58                     0                       # What write queue length does an incoming req see
system.mem_ctrls1.wrQLenPdf::59                     0                       # What write queue length does an incoming req see
system.mem_ctrls1.wrQLenPdf::60                     0                       # What write queue length does an incoming req see
system.mem_ctrls1.wrQLenPdf::61                     0                       # What write queue length does an incoming req see
system.mem_ctrls1.wrQLenPdf::62                     0                       # What write queue length does an incoming req see
system.mem_ctrls1.wrQLenPdf::63                     0                       # What write queue length does an incoming req see
system.mem_ctrls1.bytesPerActivate::samples       419175                       # Bytes accessed per row activation
system.mem_ctrls1.bytesPerActivate::mean   100.270865                       # Bytes accessed per row activation
system.mem_ctrls1.bytesPerActivate::gmean    81.850193                       # Bytes accessed per row activation
system.mem_ctrls1.bytesPerActivate::stdev   106.039265                       # Bytes accessed per row activation
system.mem_ctrls1.bytesPerActivate::0-127       322680     76.98%     76.98% # Bytes accessed per row activation
system.mem_ctrls1.bytesPerActivate::128-255        69043     16.47%     93.45% # Bytes accessed per row activation
system.mem_ctrls1.bytesPerActivate::256-383        14512      3.46%     96.91% # Bytes accessed per row activation
system.mem_ctrls1.bytesPerActivate::384-511         6698      1.60%     98.51% # Bytes accessed per row activation
system.mem_ctrls1.bytesPerActivate::512-639         2176      0.52%     99.03% # Bytes accessed per row activation
system.mem_ctrls1.bytesPerActivate::640-767          952      0.23%     99.26% # Bytes accessed per row activation
system.mem_ctrls1.bytesPerActivate::768-895          736      0.18%     99.43% # Bytes accessed per row activation
system.mem_ctrls1.bytesPerActivate::896-1023          589      0.14%     99.57% # Bytes accessed per row activation
system.mem_ctrls1.bytesPerActivate::1024-1151         1789      0.43%    100.00% # Bytes accessed per row activation
system.mem_ctrls1.bytesPerActivate::total       419175                       # Bytes accessed per row activation
system.mem_ctrls1.rdPerTurnAround::samples        14826                       # Reads before turning the bus around for writes
system.mem_ctrls1.rdPerTurnAround::mean     26.669500                       # Reads before turning the bus around for writes
system.mem_ctrls1.rdPerTurnAround::stdev   237.989257                       # Reads before turning the bus around for writes
system.mem_ctrls1.rdPerTurnAround::0-1023        14825     99.99%     99.99% # Reads before turning the bus around for writes
system.mem_ctrls1.rdPerTurnAround::28672-29695            1      0.01%    100.00% # Reads before turning the bus around for writes
system.mem_ctrls1.rdPerTurnAround::total        14826                       # Reads before turning the bus around for writes
system.mem_ctrls1.wrPerTurnAround::samples        14826                       # Writes before turning the bus around for reads
system.mem_ctrls1.wrPerTurnAround::mean     17.625253                       # Writes before turning the bus around for reads
system.mem_ctrls1.wrPerTurnAround::gmean    17.598216                       # Writes before turning the bus around for reads
system.mem_ctrls1.wrPerTurnAround::stdev     0.966065                       # Writes before turning the bus around for reads
system.mem_ctrls1.wrPerTurnAround::16            3398     22.92%     22.92% # Writes before turning the bus around for reads
system.mem_ctrls1.wrPerTurnAround::17             162      1.09%     24.01% # Writes before turning the bus around for reads
system.mem_ctrls1.wrPerTurnAround::18           10115     68.22%     92.24% # Writes before turning the bus around for reads
system.mem_ctrls1.wrPerTurnAround::19             980      6.61%     98.85% # Writes before turning the bus around for reads
system.mem_ctrls1.wrPerTurnAround::20             117      0.79%     99.64% # Writes before turning the bus around for reads
system.mem_ctrls1.wrPerTurnAround::21              40      0.27%     99.91% # Writes before turning the bus around for reads
system.mem_ctrls1.wrPerTurnAround::22               8      0.05%     99.96% # Writes before turning the bus around for reads
system.mem_ctrls1.wrPerTurnAround::23               3      0.02%     99.98% # Writes before turning the bus around for reads
system.mem_ctrls1.wrPerTurnAround::24               2      0.01%     99.99% # Writes before turning the bus around for reads
system.mem_ctrls1.wrPerTurnAround::27               1      0.01%    100.00% # Writes before turning the bus around for reads
system.mem_ctrls1.wrPerTurnAround::total        14826                       # Writes before turning the bus around for reads
system.mem_ctrls1.totQLat                 18914991035                       # Total ticks spent queuing
system.mem_ctrls1.totMemAccLat            26329172285                       # Total ticks spent from burst creation until serviced by the DRAM
system.mem_ctrls1.totBusLat                1977115000                       # Total ticks spent in databus transfers
system.mem_ctrls1.avgQLat                    47834.83                       # Average queueing delay per DRAM burst
system.mem_ctrls1.avgBusLat                   5000.00                       # Average bus latency per DRAM burst
system.mem_ctrls1.avgMemAccLat               66584.83                       # Average memory access latency per DRAM burst
system.mem_ctrls1.avgRdBW                       21.26                       # Average DRAM read bandwidth in MiByte/s
system.mem_ctrls1.avgWrBW                       14.05                       # Average achieved write bandwidth in MiByte/s
system.mem_ctrls1.avgRdBWSys                    21.31                       # Average system read bandwidth in MiByte/s
system.mem_ctrls1.avgWrBWSys                    14.05                       # Average system write bandwidth in MiByte/s
system.mem_ctrls1.peakBW                     12800.00                       # Theoretical peak bandwidth in MiByte/s
system.mem_ctrls1.busUtil                        0.28                       # Data bus utilization in percentage
system.mem_ctrls1.busUtilRead                    0.17                       # Data bus utilization in percentage for reads
system.mem_ctrls1.busUtilWrite                   0.11                       # Data bus utilization in percentage for writes
system.mem_ctrls1.avgRdQLen                      1.00                       # Average read queue length when enqueuing
system.mem_ctrls1.avgWrQLen                     22.65                       # Average write queue length when enqueuing
system.mem_ctrls1.readRowHits                  187926                       # Number of row buffer hits during reads
system.mem_ctrls1.writeRowHits                  49634                       # Number of row buffer hits during writes
system.mem_ctrls1.readRowHitRate                47.53                       # Row buffer hit rate for reads
system.mem_ctrls1.writeRowHitRate               18.99                       # Row buffer hit rate for writes
system.mem_ctrls1.avgGap                   1810127.84                       # Average gap between requests
system.mem_ctrls1.pageHitRate                   36.17                       # Row buffer hit rate, read and write combined
system.mem_ctrls1_0.actEnergy              1510167120                       # Energy for activate commands per rank (pJ)
system.mem_ctrls1_0.preEnergy               802672860                       # Energy for precharge commands per rank (pJ)
system.mem_ctrls1_0.readEnergy             1427742960                       # Energy for read commands per rank (pJ)
system.mem_ctrls1_0.writeEnergy             688173480                       # Energy for write commands per rank (pJ)
system.mem_ctrls1_0.refreshEnergy        43885910640.000008                       # Energy for refresh commands per rank (pJ)
system.mem_ctrls1_0.actBackEnergy         24848244840                       # Energy for active background per rank (pJ)
system.mem_ctrls1_0.preBackEnergy          2100991200                       # Energy for precharge background per rank (pJ)
system.mem_ctrls1_0.actPowerDownEnergy   115135198320                       # Energy for active power-down per rank (pJ)
system.mem_ctrls1_0.prePowerDownEnergy    57607471200                       # Energy for precharge power-down per rank (pJ)
system.mem_ctrls1_0.selfRefreshEnergy    181871843175                       # Energy for self refresh per rank (pJ)
system.mem_ctrls1_0.totalEnergy          429893285595                       # Total energy per rank (pJ)
system.mem_ctrls1_0.averagePower           361.075718                       # Core power per rank (mW)
system.mem_ctrls1_0.totalIdleTime        1130504848835                       # Total Idle time Per DRAM Rank
system.mem_ctrls1_0.memoryStateTime::IDLE   3697722152                       # Time in different power states
system.mem_ctrls1_0.memoryStateTime::REF  18643178000                       # Time in different power states
system.mem_ctrls1_0.memoryStateTime::SREF 728085315106                       # Time in different power states
system.mem_ctrls1_0.memoryStateTime::PRE_PDN 150019961690                       # Time in different power states
system.mem_ctrls1_0.memoryStateTime::ACT  37654048682                       # Time in different power states
system.mem_ctrls1_0.memoryStateTime::ACT_PDN 252490169726                       # Time in different power states
system.mem_ctrls1_1.actEnergy              1482742380                       # Energy for activate commands per rank (pJ)
system.mem_ctrls1_1.preEnergy               788096265                       # Energy for precharge commands per rank (pJ)
system.mem_ctrls1_1.readEnergy             1395577260                       # Energy for read commands per rank (pJ)
system.mem_ctrls1_1.writeEnergy             675875160                       # Energy for write commands per rank (pJ)
system.mem_ctrls1_1.refreshEnergy        44491331040.000008                       # Energy for refresh commands per rank (pJ)
system.mem_ctrls1_1.actBackEnergy         24923435250                       # Energy for active background per rank (pJ)
system.mem_ctrls1_1.preBackEnergy          2131731360                       # Energy for precharge background per rank (pJ)
system.mem_ctrls1_1.actPowerDownEnergy   116680939140                       # Energy for active power-down per rank (pJ)
system.mem_ctrls1_1.prePowerDownEnergy    58785603360                       # Energy for precharge power-down per rank (pJ)
system.mem_ctrls1_1.selfRefreshEnergy    180337442535                       # Energy for self refresh per rank (pJ)
system.mem_ctrls1_1.totalEnergy          431708680590                       # Total energy per rank (pJ)
system.mem_ctrls1_1.averagePower           362.600503                       # Core power per rank (mW)
system.mem_ctrls1_1.totalIdleTime        1130337749777                       # Total Idle time Per DRAM Rank
system.mem_ctrls1_1.memoryStateTime::IDLE   3756193517                       # Time in different power states
system.mem_ctrls1_1.memoryStateTime::REF  18900064000                       # Time in different power states
system.mem_ctrls1_1.memoryStateTime::SREF 721380142106                       # Time in different power states
system.mem_ctrls1_1.memoryStateTime::PRE_PDN 153086845989                       # Time in different power states
system.mem_ctrls1_1.memoryStateTime::ACT  37587850566                       # Time in different power states
system.mem_ctrls1_1.memoryStateTime::ACT_PDN 255879299178                       # Time in different power states
system.pwrStateResidencyTicks::UNDEFINED 191241900310356                       # Cumulative time (in ticks) in various power states
system.cpu.branchPred.lookups                       4                       # Number of BP lookups
system.cpu.branchPred.condPredicted                 2                       # Number of conditional branches predicted
system.cpu.branchPred.condIncorrect                 2                       # Number of conditional branches incorrect
system.cpu.branchPred.BTBLookups                    2                       # Number of BTB lookups
system.cpu.branchPred.BTBHits                       0                       # Number of BTB hits
system.cpu.branchPred.BTBCorrect                    0                       # Number of correct BTB predictions (this stat may not work properly.
system.cpu.branchPred.BTBHitPct              0.000000                       # BTB Hit Percentage
system.cpu.branchPred.usedRAS                       0                       # Number of times the RAS was used to get a target.
system.cpu.branchPred.RASInCorrect                  0                       # Number of incorrect RAS predictions.
system.cpu.branchPred.indirectLookups               0                       # Number of indirect predictor lookups.
system.cpu.branchPred.indirectHits                  0                       # Number of indirect target hits.
system.cpu.branchPred.indirectMisses                0                       # Number of indirect misses.
system.cpu.branchPredindirectMispredicted            0                       # Number of mispredicted indirect branches.
system.cpu_voltage_domain.voltage                   1                       # Voltage in Volts
system.cpu_clk_domain.clock                       333                       # Clock period in ticks
system.cpu.dtb.fetch_hits                           0                       # ITB hits
system.cpu.dtb.fetch_misses                         0                       # ITB misses
system.cpu.dtb.fetch_acv                            0                       # ITB acv
system.cpu.dtb.fetch_accesses                       0                       # ITB accesses
system.cpu.dtb.read_hits                            6                       # DTB read hits
system.cpu.dtb.read_misses                          0                       # DTB read misses
system.cpu.dtb.read_acv                             0                       # DTB read access violations
system.cpu.dtb.read_accesses                        6                       # DTB read accesses
system.cpu.dtb.write_hits                           1                       # DTB write hits
system.cpu.dtb.write_misses                         0                       # DTB write misses
system.cpu.dtb.write_acv                            0                       # DTB write access violations
system.cpu.dtb.write_accesses                       1                       # DTB write accesses
system.cpu.dtb.data_hits                            7                       # DTB hits
system.cpu.dtb.data_misses                          0                       # DTB misses
system.cpu.dtb.data_acv                             0                       # DTB access violations
system.cpu.dtb.data_accesses                        7                       # DTB accesses
system.cpu.itb.fetch_hits                           7                       # ITB hits
system.cpu.itb.fetch_misses                         0                       # ITB misses
system.cpu.itb.fetch_acv                            0                       # ITB acv
system.cpu.itb.fetch_accesses                       7                       # ITB accesses
system.cpu.itb.read_hits                            0                       # DTB read hits
system.cpu.itb.read_misses                          0                       # DTB read misses
system.cpu.itb.read_acv                             0                       # DTB read access violations
system.cpu.itb.read_accesses                        0                       # DTB read accesses
system.cpu.itb.write_hits                           0                       # DTB write hits
system.cpu.itb.write_misses                         0                       # DTB write misses
system.cpu.itb.write_acv                            0                       # DTB write access violations
system.cpu.itb.write_accesses                       0                       # DTB write accesses
system.cpu.itb.data_hits                            0                       # DTB hits
system.cpu.itb.data_misses                          0                       # DTB misses
system.cpu.itb.data_acv                             0                       # DTB access violations
system.cpu.itb.data_accesses                        0                       # DTB accesses
system.cpu.workload.num_syscalls                    0                       # Number of system calls
system.cpu.pwrStateResidencyTicks::ON    1190590395356                       # Cumulative time (in ticks) in various power states
system.cpu.numCycles                              851                       # number of cpu cycles simulated
system.cpu.numWorkItemsStarted                      0                       # number of work items this cpu started
system.cpu.numWorkItemsCompleted                    0                       # number of work items this cpu completed
system.cpu.fetch.icacheStallCycles                 50                       # Number of cycles fetch is stalled on an Icache miss
system.cpu.fetch.Insts                             19                       # Number of instructions fetch has processed
system.cpu.fetch.Branches                           4                       # Number of branches that fetch encountered
system.cpu.fetch.Cycles                             4                       # Number of cycles fetch has run and was not squashing or blocked
system.cpu.fetch.SquashCycles                       7                       # Number of cycles fetch has spent squashing
system.cpu.fetch.PendingDrainCycles                 6                       # Number of cycles fetch has spent waiting on pipes to drain
system.cpu.fetch.CacheLines                         7                       # Number of cache lines fetched
system.cpu.fetch.IcacheSquashes                     4                       # Number of outstanding Icache misses that were squashed
system.cpu.fetch.rateDist::samples                 63                       # Number of instructions fetched each cycle (Total)
system.cpu.fetch.rateDist::mean              0.301587                       # Number of instructions fetched each cycle (Total)
system.cpu.fetch.rateDist::stdev             1.432738                       # Number of instructions fetched each cycle (Total)
system.cpu.fetch.rateDist::underflows               0      0.00%      0.00% # Number of instructions fetched each cycle (Total)
system.cpu.fetch.rateDist::0                       59     93.65%     93.65% # Number of instructions fetched each cycle (Total)
system.cpu.fetch.rateDist::1                        1      1.59%     95.24% # Number of instructions fetched each cycle (Total)
system.cpu.fetch.rateDist::2                        1      1.59%     96.83% # Number of instructions fetched each cycle (Total)
[...]
system.switch_cpus_1.iq.int_inst_queue_writes    557609525                       # Number of integer instruction queue writes
system.switch_cpus_1.iq.int_inst_queue_wakeup_accesses    315093352                       # Number of integer instruction queue wakeup accesses
system.switch_cpus_1.iq.fp_inst_queue_reads          222                       # Number of floating instruction queue reads
system.switch_cpus_1.iq.fp_inst_queue_writes          177                       # Number of floating instruction queue writes
system.switch_cpus_1.iq.fp_inst_queue_wakeup_accesses          101                       # Number of floating instruction queue wakeup accesses
system.switch_cpus_1.iq.int_alu_accesses    339892710                       # Number of integer alu accesses
system.switch_cpus_1.iq.fp_alu_accesses           111                       # Number of floating point alu accesses
system.switch_cpus_1.iew.lsq.thread0.forwLoads      3701304                       # Number of loads that had data forwarded from stores
system.switch_cpus_1.iew.lsq.thread0.invAddrLoads            0                       # Number of loads ignored due to an invalid address
system.switch_cpus_1.iew.lsq.thread0.squashedLoads     42767257                       # Number of loads squashed
system.switch_cpus_1.iew.lsq.thread0.ignoredResponses        24449                       # Number of memory responses ignored because the instruction is squashed
system.switch_cpus_1.iew.lsq.thread0.memOrderViolation        11282                       # Number of memory ordering violations
system.switch_cpus_1.iew.lsq.thread0.squashedStores     13253596                       # Number of stores squashed
system.switch_cpus_1.iew.lsq.thread0.invAddrSwpfs            0                       # Number of software prefetches ignored due to an invalid address
system.switch_cpus_1.iew.lsq.thread0.blockedLoads            0                       # Number of blocked loads due to partial load-store forwarding
system.switch_cpus_1.iew.lsq.thread0.rescheduledLoads            0                       # Number of loads that were rescheduled
system.switch_cpus_1.iew.lsq.thread0.cacheBlocked      6269172                       # Number of times an access to memory failed due to the cache being blocked
system.switch_cpus_1.iew.iewIdleCycles              0                       # Number of cycles IEW is idle
system.switch_cpus_1.iew.iewSquashCycles      3267633                       # Number of cycles IEW is squashing
system.switch_cpus_1.iew.iewBlockCycles      35276094                       # Number of cycles IEW is blocking
system.switch_cpus_1.iew.iewUnblockCycles      8987706                       # Number of cycles IEW is unblocking
system.switch_cpus_1.iew.iewDispatchedInsts    379493499                       # Number of instructions dispatched to IQ
system.switch_cpus_1.iew.iewDispSquashedInsts       956846                       # Number of squashed instructions skipped by dispatch
system.switch_cpus_1.iew.iewDispLoadInsts     92200005                       # Number of dispatched load instructions
system.switch_cpus_1.iew.iewDispStoreInsts     27319084                       # Number of dispatched store instructions
system.switch_cpus_1.iew.iewDispNonSpecInsts            0                       # Number of dispatched non-speculative instructions
system.switch_cpus_1.iew.iewIQFullEvents       188224                       # Number of times the IQ has become full, causing a stall
system.switch_cpus_1.iew.iewLSQFullEvents      8723227                       # Number of times the LSQ has become full, causing a stall
system.switch_cpus_1.iew.memOrderViolationEvents        11282                       # Number of memory order violations
system.switch_cpus_1.iew.predictedTakenIncorrect      1674900                       # Number of branches that were predicted taken incorrectly
system.switch_cpus_1.iew.predictedNotTakenIncorrect      1792449                       # Number of branches that were predicted not taken incorrectly
system.switch_cpus_1.iew.branchMispredicts      3467349                       # Number of branch mispredicts detected at execute
system.switch_cpus_1.iew.iewExecutedInsts    329205745                       # Number of executed instructions
system.switch_cpus_1.iew.iewExecLoadInsts     86595920                       # Number of load instructions executed
system.switch_cpus_1.iew.iewExecSquashedInsts      6257773                       # Number of squashed instructions skipped in execute
system.switch_cpus_1.iew.exec_swp                   0                       # number of swp insts executed
system.switch_cpus_1.iew.exec_nop              694015                       # number of nop insts executed
system.switch_cpus_1.iew.exec_refs          107317962                       # number of memory reference insts executed
system.switch_cpus_1.iew.exec_branches       38312105                       # Number of branches executed
system.switch_cpus_1.iew.exec_stores         20722042                       # Number of stores executed
system.switch_cpus_1.iew.exec_rate           1.708546                       # Inst execution rate
system.switch_cpus_1.iew.wb_sent            318666524                       # cumulative count of insts sent to commit
system.switch_cpus_1.iew.wb_count           315093453                       # cumulative count of insts written-back
system.switch_cpus_1.iew.wb_producers       205125573                       # num instructions producing a value
system.switch_cpus_1.iew.wb_consumers       269610571                       # num instructions consuming a value
system.switch_cpus_1.iew.wb_rate             1.635305                       # insts written-back per cycle
system.switch_cpus_1.iew.wb_fanout           0.760822                       # average fanout of values written-back
system.switch_cpus_1.commit.commitSquashedInsts    169592478                       # The number of squashed insts skipped by commit
system.switch_cpus_1.commit.branchMispredicts      2823732                       # The number of times a branch was mispredicted
system.switch_cpus_1.commit.committed_per_cycle::samples    169166239                       # Number of insts commited each cycle
system.switch_cpus_1.commit.committed_per_cycle::mean     1.185455                       # Number of insts commited each cycle
system.switch_cpus_1.commit.committed_per_cycle::stdev     2.363949                       # Number of insts commited each cycle
system.switch_cpus_1.commit.committed_per_cycle::underflows            0      0.00%      0.00% # Number of insts commited each cycle
system.switch_cpus_1.commit.committed_per_cycle::0    115114789     68.05%     68.05% # Number of insts commited each cycle
system.switch_cpus_1.commit.committed_per_cycle::1     17227234     10.18%     78.23% # Number of insts commited each cycle
system.switch_cpus_1.commit.committed_per_cycle::2     11105217      6.56%     84.80% # Number of insts commited each cycle
system.switch_cpus_1.commit.committed_per_cycle::3      5014722      2.96%     87.76% # Number of insts commited each cycle
system.switch_cpus_1.commit.committed_per_cycle::4      2545138      1.50%     89.27% # Number of insts commited each cycle
system.switch_cpus_1.commit.committed_per_cycle::5      1934230      1.14%     90.41% # Number of insts commited each cycle
system.switch_cpus_1.commit.committed_per_cycle::6      1364837      0.81%     91.22% # Number of insts commited each cycle
system.switch_cpus_1.commit.committed_per_cycle::7       864202      0.51%     91.73% # Number of insts commited each cycle
system.switch_cpus_1.commit.committed_per_cycle::8     13995870      8.27%    100.00% # Number of insts commited each cycle
system.switch_cpus_1.commit.committed_per_cycle::overflows            0      0.00%    100.00% # Number of insts commited each cycle
system.switch_cpus_1.commit.committed_per_cycle::min_value            0                       # Number of insts commited each cycle
system.switch_cpus_1.commit.committed_per_cycle::max_value            8                       # Number of insts commited each cycle
system.switch_cpus_1.commit.committed_per_cycle::total    169166239                       # Number of insts commited each cycle
system.switch_cpus_1.commit.committedInsts    200538932                       # Number of instructions committed
system.switch_cpus_1.commit.committedOps    200538932                       # Number of ops (including micro ops) committed
system.switch_cpus_1.commit.swp_count               0                       # Number of s/w prefetches committed
system.switch_cpus_1.commit.refs             63498195                       # Number of memory references committed
system.switch_cpus_1.commit.loads            49432720                       # Number of loads committed
system.switch_cpus_1.commit.membars                 0                       # Number of memory barriers committed
system.switch_cpus_1.commit.branches         24329166                       # Number of branches committed
system.switch_cpus_1.commit.fp_insts               91                       # Number of committed floating point instructions.
system.switch_cpus_1.commit.int_insts       197997126                       # Number of committed integer instructions.
system.switch_cpus_1.commit.function_calls       749984                       # Number of function calls committed.
system.switch_cpus_1.commit.op_class_0::No_OpClass       538941      0.27%      0.27% # Class of committed instruction
system.switch_cpus_1.commit.op_class_0::IntAlu    136501742     68.07%     68.34% # Class of committed instruction
system.switch_cpus_1.commit.op_class_0::IntMult            0      0.00%     68.34% # Class of committed instruction
system.switch_cpus_1.commit.op_class_0::IntDiv            0      0.00%     68.34% # Class of committed instruction
system.switch_cpus_1.commit.op_class_0::FloatAdd           30      0.00%     68.34% # Class of committed instruction
system.switch_cpus_1.commit.op_class_0::FloatCmp            0      0.00%     68.34% # Class of committed instruction
system.switch_cpus_1.commit.op_class_0::FloatCvt           18      0.00%     68.34% # Class of committed instruction
system.switch_cpus_1.commit.op_class_0::FloatMult            0      0.00%     68.34% # Class of committed instruction
system.switch_cpus_1.commit.op_class_0::FloatMultAcc            0      0.00%     68.34% # Class of committed instruction
system.switch_cpus_1.commit.op_class_0::FloatDiv            6      0.00%     68.34% # Class of committed instruction
system.switch_cpus_1.commit.op_class_0::FloatMisc            0      0.00%     68.34% # Class of committed instruction
system.switch_cpus_1.commit.op_class_0::FloatSqrt            0      0.00%     68.34% # Class of committed instruction
system.switch_cpus_1.commit.op_class_0::SimdAdd            0      0.00%     68.34% # Class of committed instruction
system.switch_cpus_1.commit.op_class_0::SimdAddAcc            0      0.00%     68.34% # Class of committed instruction
system.switch_cpus_1.commit.op_class_0::SimdAlu            0      0.00%     68.34% # Class of committed instruction
system.switch_cpus_1.commit.op_class_0::SimdCmp            0      0.00%     68.34% # Class of committed instruction
system.switch_cpus_1.commit.op_class_0::SimdCvt            0      0.00%     68.34% # Class of committed instruction
system.switch_cpus_1.commit.op_class_0::SimdMisc            0      0.00%     68.34% # Class of committed instruction
system.switch_cpus_1.commit.op_class_0::SimdMult            0      0.00%     68.34% # Class of committed instruction
system.switch_cpus_1.commit.op_class_0::SimdMultAcc            0      0.00%     68.34% # Class of committed instruction
system.switch_cpus_1.commit.op_class_0::SimdShift            0      0.00%     68.34% # Class of committed instruction
system.switch_cpus_1.commit.op_class_0::SimdShiftAcc            0      0.00%     68.34% # Class of committed instruction
system.switch_cpus_1.commit.op_class_0::SimdSqrt            0      0.00%     68.34% # Class of committed instruction
system.switch_cpus_1.commit.op_class_0::SimdFloatAdd            0      0.00%     68.34% # Class of committed instruction
system.switch_cpus_1.commit.op_class_0::SimdFloatAlu            0      0.00%     68.34% # Class of committed instruction
system.switch_cpus_1.commit.op_class_0::SimdFloatCmp            0      0.00%     68.34% # Class of committed instruction
system.switch_cpus_1.commit.op_class_0::SimdFloatCvt            0      0.00%     68.34% # Class of committed instruction
system.switch_cpus_1.commit.op_class_0::SimdFloatDiv            0      0.00%     68.34% # Class of committed instruction
system.switch_cpus_1.commit.op_class_0::SimdFloatMisc            0      0.00%     68.34% # Class of committed instruction
system.switch_cpus_1.commit.op_class_0::SimdFloatMult            0      0.00%     68.34% # Class of committed instruction
system.switch_cpus_1.commit.op_class_0::SimdFloatMultAcc            0      0.00%     68.34% # Class of committed instruction
system.switch_cpus_1.commit.op_class_0::SimdFloatSqrt            0      0.00%     68.34% # Class of committed instruction
system.switch_cpus_1.commit.op_class_0::MemRead     49432701     24.65%     92.99% # Class of committed instruction
system.switch_cpus_1.commit.op_class_0::MemWrite     14065457      7.01%    100.00% # Class of committed instruction
system.switch_cpus_1.commit.op_class_0::FloatMemRead           19      0.00%    100.00% # Class of committed instruction
system.switch_cpus_1.commit.op_class_0::FloatMemWrite           18      0.00%    100.00% # Class of committed instruction
system.switch_cpus_1.commit.op_class_0::IprAccess            0      0.00%    100.00% # Class of committed instruction
system.switch_cpus_1.commit.op_class_0::InstPrefetch            0      0.00%    100.00% # Class of committed instruction
system.switch_cpus_1.commit.op_class_0::total    200538932                       # Class of committed instruction
system.switch_cpus_1.commit.bw_lim_events     13995870                       # number cycles where commit BW limit reached
system.switch_cpus_1.rob.rob_reads          519646155                       # The number of ROB reads
system.switch_cpus_1.rob.rob_writes         763800121                       # The number of ROB writes
system.switch_cpus_1.timesIdled                   138                       # Number of times that the entire CPU went into an idle state and unscheduled itself
system.switch_cpus_1.idleCycles                 10477                       # Total number of cycles that the CPU has spent unscheduled due to idling
system.switch_cpus_1.committedInsts         200000003                       # Number of Instructions Simulated
system.switch_cpus_1.committedOps           200000003                       # Number of Ops (including micro ops) Simulated
system.switch_cpus_1.cpi                     0.963409                       # CPI: Cycles Per Instruction
system.switch_cpus_1.cpi_total               0.963409                       # CPI: Total CPI of All Threads
system.switch_cpus_1.ipc                     1.037981                       # IPC: Instructions Per Cycle
system.switch_cpus_1.ipc_total               1.037981                       # IPC: Total IPC of All Threads
system.switch_cpus_1.int_regfile_reads      447947039                       # number of integer regfile reads
system.switch_cpus_1.int_regfile_writes     259610718                       # number of integer regfile writes
system.switch_cpus_1.fp_regfile_reads              63                       # number of floating regfile reads
system.switch_cpus_1.fp_regfile_writes            103                       # number of floating regfile writes
system.switch_cpus_1.misc_regfile_reads            12                       # number of misc regfile reads
system.switch_cpus_1.misc_regfile_writes            6                       # number of misc regfile writes
system.tol3bus.snoop_filter.tot_requests     15148761                       # Total number of requests made to the snoop filter.
system.tol3bus.snoop_filter.hit_single_requests      7572231                       # Number of requests hitting in the snoop filter with a single holder of the requested data.
system.tol3bus.snoop_filter.hit_multi_requests            0                       # Number of requests hitting in the snoop filter with multiple (>1) holders of the requested data.
system.tol3bus.snoop_filter.tot_snoops           1745                       # Total number of snoops made to the snoop filter.
system.tol3bus.snoop_filter.hit_single_snoops         1745                       # Number of snoops hitting in the snoop filter with a single holder of the requested data.
system.tol3bus.snoop_filter.hit_multi_snoops            0                       # Number of snoops hitting in the snoop filter with multiple (>1) holders of the requested data.
system.tol3bus.pwrStateResidencyTicks::UNDEFINED 191241900310356                       # Cumulative time (in ticks) in various power states
system.tol3bus.trans_dist::ReadResp           5401117                       # Transaction distribution
system.tol3bus.trans_dist::WritebackDirty      4445359                       # Transaction distribution
system.tol3bus.trans_dist::CleanEvict         3854633                       # Transaction distribution
system.tol3bus.trans_dist::UpgradeReq               3                       # Transaction distribution
system.tol3bus.trans_dist::UpgradeResp              3                       # Transaction distribution
system.tol3bus.trans_dist::ReadExReq          2175413                       # Transaction distribution
system.tol3bus.trans_dist::ReadExResp         2175413                       # Transaction distribution
system.tol3bus.trans_dist::ReadSharedReq      5401117                       # Transaction distribution
system.tol3bus.pkt_count_system.cpu.l2.mem_side::system.l3.cpu_side     22725294                       # Packet count per connected master and slave (bytes)
system.tol3bus.pkt_size_system.cpu.l2.mem_side::system.l3.cpu_side    735952896                       # Cumulative packet size per connected master and slave (bytes)
system.tol3bus.snoops                          727764                       # Total snoops (count)
system.tol3bus.snoopTraffic                  33448000                       # Total snoop traffic (bytes)
system.tol3bus.snoop_fanout::samples          8304297                       # Request fanout histogram
system.tol3bus.snoop_fanout::mean            0.000210                       # Request fanout histogram
system.tol3bus.snoop_fanout::stdev           0.014494                       # Request fanout histogram
system.tol3bus.snoop_fanout::underflows             0      0.00%      0.00% # Request fanout histogram
system.tol3bus.snoop_fanout::0                8302552     99.98%     99.98% # Request fanout histogram
system.tol3bus.snoop_fanout::1                   1745      0.02%    100.00% # Request fanout histogram
system.tol3bus.snoop_fanout::overflows              0      0.00%    100.00% # Request fanout histogram
system.tol3bus.snoop_fanout::min_value              0                       # Request fanout histogram
system.tol3bus.snoop_fanout::max_value              1                       # Request fanout histogram
system.tol3bus.snoop_fanout::total            8304297                       # Request fanout histogram
system.tol3bus.reqLayer0.occupancy         6350807835                       # Layer occupancy (ticks)
system.tol3bus.reqLayer0.utilization              0.5                       # Layer utilization (%)
system.tol3bus.respLayer0.occupancy        5045969979                       # Layer occupancy (ticks)
system.tol3bus.respLayer0.utilization             0.4                       # Layer utilization (%)

---------- End Simulation Statistics   ----------
