
---------- Begin Simulation Statistics ----------
sim_seconds                                  1.012529                       # Number of seconds simulated
sim_ticks                                1012528990467                       # Number of ticks simulated
final_tick                               310860410874876                       # Number of ticks from beginning of simulation (restored from checkpoints and never reset)
sim_freq                                 1000000000000                       # Frequency of simulated ticks
host_inst_rate                                 848889                       # Simulator instruction rate (inst/s)
host_op_rate                                   848889                       # Simulator op (including micro ops) rate (op/s)
host_tick_rate                              716270347                       # Simulator tick rate (ticks/s)
host_mem_usage                                2399604                       # Number of bytes of host memory used
host_seconds                                  1413.61                       # Real time elapsed on the host
sim_insts                                  1200000007                       # Number of instructions simulated
sim_ops                                    1200000007                       # Number of ops (including micro ops) simulated
system.voltage_domain.voltage                       1                       # Voltage in Volts
system.clk_domain.clock                          1000                       # Clock period in ticks
system.mem_ctrls0.pwrStateResidencyTicks::UNDEFINED 310860410874876                       # Cumulative time (in ticks) in various power states
system.mem_ctrls0.bytes_read::cpu.inst             64                       # Number of bytes read from this memory
system.mem_ctrls0.bytes_read::switch_cpus.inst        25344                       # Number of bytes read from this memory
system.mem_ctrls0.bytes_read::switch_cpus.data      2626560                       # Number of bytes read from this memory
system.mem_ctrls0.bytes_read::switch_cpus_1.inst         8704                       # Number of bytes read from this memory
system.mem_ctrls0.bytes_read::switch_cpus_1.data       336832                       # Number of bytes read from this memory
system.mem_ctrls0.bytes_read::total           2997504                       # Number of bytes read from this memory
system.mem_ctrls0.bytes_inst_read::cpu.inst           64                       # Number of instructions bytes read from this memory
system.mem_ctrls0.bytes_inst_read::switch_cpus.inst        25344                       # Number of instructions bytes read from this memory
system.mem_ctrls0.bytes_inst_read::switch_cpus_1.inst         8704                       # Number of instructions bytes read from this memory
system.mem_ctrls0.bytes_inst_read::total        34112                       # Number of instructions bytes read from this memory
system.mem_ctrls0.bytes_written::writebacks       162752                       # Number of bytes written to this memory
system.mem_ctrls0.bytes_written::total         162752                       # Number of bytes written to this memory
system.mem_ctrls0.num_reads::cpu.inst               1                       # Number of read requests responded to by this memory
system.mem_ctrls0.num_reads::switch_cpus.inst          396                       # Number of read requests responded to by this memory
system.mem_ctrls0.num_reads::switch_cpus.data        41040                       # Number of read requests responded to by this memory
system.mem_ctrls0.num_reads::switch_cpus_1.inst          136                       # Number of read requests responded to by this memory
system.mem_ctrls0.num_reads::switch_cpus_1.data         5263                       # Number of read requests responded to by this memory
system.mem_ctrls0.num_reads::total              46836                       # Number of read requests responded to by this memory
system.mem_ctrls0.num_writes::writebacks         2543                       # Number of write requests responded to by this memory
system.mem_ctrls0.num_writes::total              2543                       # Number of write requests responded to by this memory
system.mem_ctrls0.bw_read::cpu.inst                63                       # Total read bandwidth from this memory (bytes/s)
system.mem_ctrls0.bw_read::switch_cpus.inst        25030                       # Total read bandwidth from this memory (bytes/s)
system.mem_ctrls0.bw_read::switch_cpus.data      2594059                       # Total read bandwidth from this memory (bytes/s)
system.mem_ctrls0.bw_read::switch_cpus_1.inst         8596                       # Total read bandwidth from this memory (bytes/s)
system.mem_ctrls0.bw_read::switch_cpus_1.data       332664                       # Total read bandwidth from this memory (bytes/s)
system.mem_ctrls0.bw_read::total              2960413                       # Total read bandwidth from this memory (bytes/s)
system.mem_ctrls0.bw_inst_read::cpu.inst           63                       # Instruction read bandwidth from this memory (bytes/s)
system.mem_ctrls0.bw_inst_read::switch_cpus.inst        25030                       # Instruction read bandwidth from this memory (bytes/s)
system.mem_ctrls0.bw_inst_read::switch_cpus_1.inst         8596                       # Instruction read bandwidth from this memory (bytes/s)
system.mem_ctrls0.bw_inst_read::total           33690                       # Instruction read bandwidth from this memory (bytes/s)
system.mem_ctrls0.bw_write::writebacks         160738                       # Write bandwidth from this memory (bytes/s)
system.mem_ctrls0.bw_write::total              160738                       # Write bandwidth from this memory (bytes/s)
system.mem_ctrls0.bw_total::writebacks         160738                       # Total bandwidth to/from this memory (bytes/s)
system.mem_ctrls0.bw_total::cpu.inst               63                       # Total bandwidth to/from this memory (bytes/s)
system.mem_ctrls0.bw_total::switch_cpus.inst        25030                       # Total bandwidth to/from this memory (bytes/s)
system.mem_ctrls0.bw_total::switch_cpus.data      2594059                       # Total bandwidth to/from this memory (bytes/s)
system.mem_ctrls0.bw_total::switch_cpus_1.inst         8596                       # Total bandwidth to/from this memory (bytes/s)
system.mem_ctrls0.bw_total::switch_cpus_1.data       332664                       # Total bandwidth to/from this memory (bytes/s)
system.mem_ctrls0.bw_total::total             3121151                       # Total bandwidth to/from this memory (bytes/s)
system.mem_ctrls0.readReqs                      46836                       # Number of read requests accepted
system.mem_ctrls0.writeReqs                      2543                       # Number of write requests accepted
system.mem_ctrls0.readBursts                    46836                       # Number of DRAM read bursts, including those serviced by the write queue
system.mem_ctrls0.writeBursts                    2543                       # Number of DRAM write bursts, including those merged in the write queue
system.mem_ctrls0.bytesReadDRAM               2989568                       # Total number of bytes read from DRAM
system.mem_ctrls0.bytesReadWrQ                   7936                       # Total number of bytes read from write queue
system.mem_ctrls0.bytesWritten                 161408                       # Total number of bytes written to DRAM
system.mem_ctrls0.bytesReadSys                2997504                       # Total read bytes from the system interface side
system.mem_ctrls0.bytesWrittenSys              162752                       # Total written bytes from the system interface side
system.mem_ctrls0.servicedByWrQ                   124                       # Number of DRAM read bursts serviced by the write queue
system.mem_ctrls0.mergedWrBursts                    0                       # Number of DRAM write bursts merged with an existing one
system.mem_ctrls0.neitherReadNorWriteReqs            0                       # Number of requests that are neither read nor write
system.mem_ctrls0.perBankRdBursts::0             3120                       # Per bank write bursts
system.mem_ctrls0.perBankRdBursts::1             3052                       # Per bank write bursts
system.mem_ctrls0.perBankRdBursts::2             2873                       # Per bank write bursts
system.mem_ctrls0.perBankRdBursts::3             2750                       # Per bank write bursts
system.mem_ctrls0.perBankRdBursts::4             2681                       # Per bank write bursts
system.mem_ctrls0.perBankRdBursts::5             2784                       # Per bank write bursts
system.mem_ctrls0.perBankRdBursts::6             2984                       # Per bank write bursts
system.mem_ctrls0.perBankRdBursts::7             3179                       # Per bank write bursts
system.mem_ctrls0.perBankRdBursts::8             3325                       # Per bank write bursts
system.mem_ctrls0.perBankRdBursts::9             3305                       # Per bank write bursts
system.mem_ctrls0.perBankRdBursts::10            2843                       # Per bank write bursts
system.mem_ctrls0.perBankRdBursts::11            2563                       # Per bank write bursts
system.mem_ctrls0.perBankRdBursts::12            2695                       # Per bank write bursts
system.mem_ctrls0.perBankRdBursts::13            2699                       # Per bank write bursts
system.mem_ctrls0.perBankRdBursts::14            2961                       # Per bank write bursts
system.mem_ctrls0.perBankRdBursts::15            2898                       # Per bank write bursts
system.mem_ctrls0.perBankWrBursts::0              307                       # Per bank write bursts
system.mem_ctrls0.perBankWrBursts::1              267                       # Per bank write bursts
system.mem_ctrls0.perBankWrBursts::2              110                       # Per bank write bursts
system.mem_ctrls0.perBankWrBursts::3               88                       # Per bank write bursts
system.mem_ctrls0.perBankWrBursts::4               74                       # Per bank write bursts
system.mem_ctrls0.perBankWrBursts::5               12                       # Per bank write bursts
system.mem_ctrls0.perBankWrBursts::6              110                       # Per bank write bursts
system.mem_ctrls0.perBankWrBursts::7              133                       # Per bank write bursts
system.mem_ctrls0.perBankWrBursts::8              225                       # Per bank write bursts
system.mem_ctrls0.perBankWrBursts::9              362                       # Per bank write bursts
system.mem_ctrls0.perBankWrBursts::10             123                       # Per bank write bursts
system.mem_ctrls0.perBankWrBursts::11              74                       # Per bank write bursts
system.mem_ctrls0.perBankWrBursts::12              54                       # Per bank write bursts
system.mem_ctrls0.perBankWrBursts::13              48                       # Per bank write bursts
system.mem_ctrls0.perBankWrBursts::14             256                       # Per bank write bursts
system.mem_ctrls0.perBankWrBursts::15             279                       # Per bank write bursts
system.mem_ctrls0.numRdRetry                        0                       # Number of times read queue was full causing retry
system.mem_ctrls0.numWrRetry                        0                       # Number of times write queue was full causing retry
system.mem_ctrls0.totGap                 1012528928862                       # Total gap between requests
system.mem_ctrls0.readPktSize::0                    0                       # Read request sizes (log2)
system.mem_ctrls0.readPktSize::1                    0                       # Read request sizes (log2)
system.mem_ctrls0.readPktSize::2                    0                       # Read request sizes (log2)
system.mem_ctrls0.readPktSize::3                    0                       # Read request sizes (log2)
system.mem_ctrls0.readPktSize::4                    0                       # Read request sizes (log2)
system.mem_ctrls0.readPktSize::5                    0                       # Read request sizes (log2)
system.mem_ctrls0.readPktSize::6                46836                       # Read request sizes (log2)
system.mem_ctrls0.writePktSize::0                   0                       # Write request sizes (log2)
system.mem_ctrls0.writePktSize::1                   0                       # Write request sizes (log2)
system.mem_ctrls0.writePktSize::2                   0                       # Write request sizes (log2)
system.mem_ctrls0.writePktSize::3                   0                       # Write request sizes (log2)
system.mem_ctrls0.writePktSize::4                   0                       # Write request sizes (log2)
system.mem_ctrls0.writePktSize::5                   0                       # Write request sizes (log2)
system.mem_ctrls0.writePktSize::6                2543                       # Write request sizes (log2)
system.mem_ctrls0.rdQLenPdf::0                  45520                       # What read queue length does an incoming req see
system.mem_ctrls0.rdQLenPdf::1                   1186                       # What read queue length does an incoming req see
system.mem_ctrls0.rdQLenPdf::2                      4                       # What read queue length does an incoming req see
system.mem_ctrls0.rdQLenPdf::3                      2                       # What read queue length does an incoming req see
system.mem_ctrls0.rdQLenPdf::4                      0                       # What read queue length does an incoming req see
system.mem_ctrls0.rdQLenPdf::5                      0                       # What read queue length does an incoming req see
system.mem_ctrls0.rdQLenPdf::6                      0                       # What read queue length does an incoming req see
system.mem_ctrls0.rdQLenPdf::7                      0                       # What read queue length does an incoming req see
system.mem_ctrls0.rdQLenPdf::8                      0                       # What read queue length does an incoming req see
system.mem_ctrls0.rdQLenPdf::9                      0                       # What read queue length does an incoming req see
system.mem_ctrls0.rdQLenPdf::10                     0                       # What read queue length does an incoming req see
system.mem_ctrls0.rdQLenPdf::11                     0                       # What read queue length does an incoming req see
system.mem_ctrls0.rdQLenPdf::12                     0                       # What read queue length does an incoming req see
system.mem_ctrls0.rdQLenPdf::13                     0                       # What read queue length does an incoming req see
system.mem_ctrls0.rdQLenPdf::14                     0                       # What read queue length does an incoming req see
system.mem_ctrls0.rdQLenPdf::15                     0                       # What read queue length does an incoming req see
system.mem_ctrls0.rdQLenPdf::16                     0                       # What read queue length does an incoming req see
system.mem_ctrls0.rdQLenPdf::17                     0                       # What read queue length does an incoming req see
system.mem_ctrls0.rdQLenPdf::18                     0                       # What read queue length does an incoming req see
system.mem_ctrls0.rdQLenPdf::19                     0                       # What read queue length does an incoming req see
system.mem_ctrls0.rdQLenPdf::20                     0                       # What read queue length does an incoming req see
system.mem_ctrls0.rdQLenPdf::21                     0                       # What read queue length does an incoming req see
system.mem_ctrls0.rdQLenPdf::22                     0                       # What read queue length does an incoming req see
system.mem_ctrls0.rdQLenPdf::23                     0                       # What read queue length does an incoming req see
system.mem_ctrls0.rdQLenPdf::24                     0                       # What read queue length does an incoming req see
system.mem_ctrls0.rdQLenPdf::25                     0                       # What read queue length does an incoming req see
system.mem_ctrls0.rdQLenPdf::26                     0                       # What read queue length does an incoming req see
system.mem_ctrls0.rdQLenPdf::27                     0                       # What read queue length does an incoming req see
system.mem_ctrls0.rdQLenPdf::28                     0                       # What read queue length does an incoming req see
system.mem_ctrls0.rdQLenPdf::29                     0                       # What read queue length does an incoming req see
system.mem_ctrls0.rdQLenPdf::30                     0                       # What read queue length does an incoming req see
system.mem_ctrls0.rdQLenPdf::31                     0                       # What read queue length does an incoming req see
system.mem_ctrls0.wrQLenPdf::0                      2                       # What write queue length does an incoming req see
system.mem_ctrls0.wrQLenPdf::1                      2                       # What write queue length does an incoming req see
system.mem_ctrls0.wrQLenPdf::2                      2                       # What write queue length does an incoming req see
system.mem_ctrls0.wrQLenPdf::3                      2                       # What write queue length does an incoming req see
system.mem_ctrls0.wrQLenPdf::4                      2                       # What write queue length does an incoming req see
system.mem_ctrls0.wrQLenPdf::5                      2                       # What write queue length does an incoming req see
system.mem_ctrls0.wrQLenPdf::6                      2                       # What write queue length does an incoming req see
system.mem_ctrls0.wrQLenPdf::7                      2                       # What write queue length does an incoming req see
system.mem_ctrls0.wrQLenPdf::8                      2                       # What write queue length does an incoming req see
system.mem_ctrls0.wrQLenPdf::9                      2                       # What write queue length does an incoming req see
system.mem_ctrls0.wrQLenPdf::10                     2                       # What write queue length does an incoming req see
system.mem_ctrls0.wrQLenPdf::11                     2                       # What write queue length does an incoming req see
system.mem_ctrls0.wrQLenPdf::12                     2                       # What write queue length does an incoming req see
system.mem_ctrls0.wrQLenPdf::13                     2                       # What write queue length does an incoming req see
system.mem_ctrls0.wrQLenPdf::14                     2                       # What write queue length does an incoming req see
system.mem_ctrls0.wrQLenPdf::15                    89                       # What write queue length does an incoming req see
system.mem_ctrls0.wrQLenPdf::16                    94                       # What write queue length does an incoming req see
system.mem_ctrls0.wrQLenPdf::17                   128                       # What write queue length does an incoming req see
system.mem_ctrls0.wrQLenPdf::18                   139                       # What write queue length does an incoming req see
system.mem_ctrls0.wrQLenPdf::19                   145                       # What write queue length does an incoming req see
system.mem_ctrls0.wrQLenPdf::20                   146                       # What write queue length does an incoming req see
system.mem_ctrls0.wrQLenPdf::21                   145                       # What write queue length does an incoming req see
system.mem_ctrls0.wrQLenPdf::22                   144                       # What write queue length does an incoming req see
system.mem_ctrls0.wrQLenPdf::23                   148                       # What write queue length does an incoming req see
system.mem_ctrls0.wrQLenPdf::24                   146                       # What write queue length does an incoming req see
system.mem_ctrls0.wrQLenPdf::25                   148                       # What write queue length does an incoming req see
system.mem_ctrls0.wrQLenPdf::26                   146                       # What write queue length does an incoming req see
system.mem_ctrls0.wrQLenPdf::27                   151                       # What write queue length does an incoming req see
system.mem_ctrls0.wrQLenPdf::28                   149                       # What write queue length does an incoming req see
system.mem_ctrls0.wrQLenPdf::29                   147                       # What write queue length does an incoming req see
system.mem_ctrls0.wrQLenPdf::30                   154                       # What write queue length does an incoming req see
system.mem_ctrls0.wrQLenPdf::31                   144                       # What write queue length does an incoming req see
system.mem_ctrls0.wrQLenPdf::32                   145                       # What write queue length does an incoming req see
system.mem_ctrls0.wrQLenPdf::33                     4                       # What write queue length does an incoming req see
system.mem_ctrls0.wrQLenPdf::34                     1                       # What write queue length does an incoming req see
system.mem_ctrls0.wrQLenPdf::35                     0                       # What write queue length does an incoming req see
system.mem_ctrls0.wrQLenPdf::36                     0                       # What write queue length does an incoming req see
system.mem_ctrls0.wrQLenPdf::37                     0                       # What write queue length does an incoming req see
system.mem_ctrls0.wrQLenPdf::38                     0                       # What write queue length does an incoming req see
system.mem_ctrls0.wrQLenPdf::39                     0                       # What write queue length does an incoming req see
system.mem_ctrls0.wrQLenPdf::40                     0                       # What write queue length does an incoming req see
system.mem_ctrls0.wrQLenPdf::41                     0                       # What write queue length does an incoming req see
system.mem_ctrls0.wrQLenPdf::42                     0                       # What write queue length does an incoming req see
system.mem_ctrls0.wrQLenPdf::43                     0                       # What write queue length does an incoming req see
system.mem_ctrls0.wrQLenPdf::44                     0                       # What write queue length does an incoming req see
system.mem_ctrls0.wrQLenPdf::45                     0                       # What write queue length does an incoming req see
system.mem_ctrls0.wrQLenPdf::46                     0                       # What write queue length does an incoming req see
system.mem_ctrls0.wrQLenPdf::47                     0                       # What write queue length does an incoming req see
system.mem_ctrls0.wrQLenPdf::48                     0                       # What write queue length does an incoming req see
system.mem_ctrls0.wrQLenPdf::49                     0                       # What write queue length does an incoming req see
system.mem_ctrls0.wrQLenPdf::50                     0                       # What write queue length does an incoming req see
system.mem_ctrls0.wrQLenPdf::51                     0                       # What write queue length does an incoming req see
system.mem_ctrls0.wrQLenPdf::52                     0                       # What write queue length does an incoming req see
system.mem_ctrls0.wrQLenPdf::53                     0                       # What write queue length does an incoming req see
system.mem_ctrls0.wrQLenPdf::54                     0                       # What write queue length does an incoming req see
system.mem_ctrls0.wrQLenPdf::55                     0                       # What write queue length does an incoming req see
system.mem_ctrls0.wrQLenPdf::56                     0                       # What write queue length does an incoming req see
system.mem_ctrls0.wrQLenPdf::57                     0                       # What write queue length does an incoming req see
system.mem_ctrls0.wrQLenPdf::58                     0                       # What write queue length does an incoming req see
system.mem_ctrls0.wrQLenPdf::59                     0                       # What write queue length does an incoming req see
system.mem_ctrls0.wrQLenPdf::60                     0                       # What write queue length does an incoming req see
system.mem_ctrls0.wrQLenPdf::61                     0                       # What write queue length does an incoming req see
system.mem_ctrls0.wrQLenPdf::62                     0                       # What write queue length does an incoming req see
system.mem_ctrls0.wrQLenPdf::63                     0                       # What write queue length does an incoming req see
system.mem_ctrls0.bytesPerActivate::samples        23954                       # Bytes accessed per row activation
system.mem_ctrls0.bytesPerActivate::mean   131.521416                       # Bytes accessed per row activation
system.mem_ctrls0.bytesPerActivate::gmean   115.389308                       # Bytes accessed per row activation
system.mem_ctrls0.bytesPerActivate::stdev   113.448286                       # Bytes accessed per row activation
system.mem_ctrls0.bytesPerActivate::0-127         5486     22.90%     22.90% # Bytes accessed per row activation
system.mem_ctrls0.bytesPerActivate::128-255        17614     73.53%     96.43% # Bytes accessed per row activation
system.mem_ctrls0.bytesPerActivate::256-383          220      0.92%     97.35% # Bytes accessed per row activation
system.mem_ctrls0.bytesPerActivate::384-511          131      0.55%     97.90% # Bytes accessed per row activation
system.mem_ctrls0.bytesPerActivate::512-639          112      0.47%     98.37% # Bytes accessed per row activation
system.mem_ctrls0.bytesPerActivate::640-767           79      0.33%     98.70% # Bytes accessed per row activation
system.mem_ctrls0.bytesPerActivate::768-895           52      0.22%     98.91% # Bytes accessed per row activation
system.mem_ctrls0.bytesPerActivate::896-1023           24      0.10%     99.01% # Bytes accessed per row activation
system.mem_ctrls0.bytesPerActivate::1024-1151          236      0.99%    100.00% # Bytes accessed per row activation
system.mem_ctrls0.bytesPerActivate::total        23954                       # Bytes accessed per row activation
system.mem_ctrls0.rdPerTurnAround::samples          145                       # Reads before turning the bus around for writes
system.mem_ctrls0.rdPerTurnAround::mean    322.151724                       # Reads before turning the bus around for writes
system.mem_ctrls0.rdPerTurnAround::stdev  3219.833105                       # Reads before turning the bus around for writes
system.mem_ctrls0.rdPerTurnAround::0-2047          144     99.31%     99.31% # Reads before turning the bus around for writes
system.mem_ctrls0.rdPerTurnAround::36864-38911            1      0.69%    100.00% # Reads before turning the bus around for writes
system.mem_ctrls0.rdPerTurnAround::total          145                       # Reads before turning the bus around for writes
system.mem_ctrls0.wrPerTurnAround::samples          144                       # Writes before turning the bus around for reads
system.mem_ctrls0.wrPerTurnAround::mean     17.430556                       # Writes before turning the bus around for reads
system.mem_ctrls0.wrPerTurnAround::gmean    17.390752                       # Writes before turning the bus around for reads
system.mem_ctrls0.wrPerTurnAround::stdev     1.180570                       # Writes before turning the bus around for reads
system.mem_ctrls0.wrPerTurnAround::16              52     36.11%     36.11% # Writes before turning the bus around for reads
system.mem_ctrls0.wrPerTurnAround::17               3      2.08%     38.19% # Writes before turning the bus around for reads
system.mem_ctrls0.wrPerTurnAround::18              69     47.92%     86.11% # Writes before turning the bus around for reads
system.mem_ctrls0.wrPerTurnAround::19              15     10.42%     96.53% # Writes before turning the bus around for reads
system.mem_ctrls0.wrPerTurnAround::20               5      3.47%    100.00% # Writes before turning the bus around for reads
system.mem_ctrls0.wrPerTurnAround::total          144                       # Writes before turning the bus around for reads
system.mem_ctrls0.totQLat                  9406473226                       # Total ticks spent queuing
system.mem_ctrls0.totMemAccLat            10282323226                       # Total ticks spent from burst creation until serviced by the DRAM
system.mem_ctrls0.totBusLat                 233560000                       # Total ticks spent in databus transfers
system.mem_ctrls0.avgQLat                   201371.67                       # Average queueing delay per DRAM burst
system.mem_ctrls0.avgBusLat                   5000.00                       # Average bus latency per DRAM burst
system.mem_ctrls0.avgMemAccLat              220121.67                       # Average memory access latency per DRAM burst
system.mem_ctrls0.avgRdBW                        2.95                       # Average DRAM read bandwidth in MiByte/s
system.mem_ctrls0.avgWrBW                        0.16                       # Average achieved write bandwidth in MiByte/s
system.mem_ctrls0.avgRdBWSys                     2.96                       # Average system read bandwidth in MiByte/s
system.mem_ctrls0.avgWrBWSys                     0.16                       # Average system write bandwidth in MiByte/s
system.mem_ctrls0.peakBW                     12800.00                       # Theoretical peak bandwidth in MiByte/s
system.mem_ctrls0.busUtil                        0.02                       # Data bus utilization in percentage
system.mem_ctrls0.busUtilRead                    0.02                       # Data bus utilization in percentage for reads
system.mem_ctrls0.busUtilWrite                   0.00                       # Data bus utilization in percentage for writes
system.mem_ctrls0.avgRdQLen                      1.00                       # Average read queue length when enqueuing
system.mem_ctrls0.avgWrQLen                      8.32                       # Average write queue length when enqueuing
system.mem_ctrls0.readRowHits                   23569                       # Number of row buffer hits during reads
system.mem_ctrls0.writeRowHits                   1707                       # Number of row buffer hits during writes
system.mem_ctrls0.readRowHitRate                50.46                       # Row buffer hit rate for reads
system.mem_ctrls0.writeRowHitRate               67.13                       # Row buffer hit rate for writes
system.mem_ctrls0.avgGap                  20505253.83                       # Average gap between requests
system.mem_ctrls0.pageHitRate                   51.32                       # Row buffer hit rate, read and write combined
system.mem_ctrls0_0.actEnergy                89799780                       # Energy for activate commands per rank (pJ)
system.mem_ctrls0_0.preEnergy                47718330                       # Energy for precharge commands per rank (pJ)
system.mem_ctrls0_0.readEnergy              167240220                       # Energy for read commands per rank (pJ)
system.mem_ctrls0_0.writeEnergy               5747220                       # Energy for write commands per rank (pJ)
system.mem_ctrls0_0.refreshEnergy        15764901360.000004                       # Energy for refresh commands per rank (pJ)
system.mem_ctrls0_0.actBackEnergy          3395740800                       # Energy for active background per rank (pJ)
system.mem_ctrls0_0.preBackEnergy          1041094080                       # Energy for precharge background per rank (pJ)
system.mem_ctrls0_0.actPowerDownEnergy    30981394680                       # Energy for active power-down per rank (pJ)
system.mem_ctrls0_0.prePowerDownEnergy    24458639040                       # Energy for precharge power-down per rank (pJ)
system.mem_ctrls0_0.selfRefreshEnergy    213388298970                       # Energy for self refresh per rank (pJ)
system.mem_ctrls0_0.totalEnergy          289340718330                       # Total energy per rank (pJ)
system.mem_ctrls0_0.averagePower           285.760429                       # Core power per rank (mW)
system.mem_ctrls0_0.totalIdleTime        1002371133570                       # Total Idle time Per DRAM Rank
system.mem_ctrls0_0.memoryStateTime::IDLE   2175974291                       # Time in different power states
system.mem_ctrls0_0.memoryStateTime::REF   6716704000                       # Time in different power states
system.mem_ctrls0_0.memoryStateTime::SREF 870734702841                       # Time in different power states
system.mem_ctrls0_0.memoryStateTime::PRE_PDN  63694723046                       # Time in different power states
system.mem_ctrls0_0.memoryStateTime::ACT   1265178606                       # Time in different power states
system.mem_ctrls0_0.memoryStateTime::ACT_PDN  67941707683                       # Time in different power states
system.mem_ctrls0_1.actEnergy                81260340                       # Energy for activate commands per rank (pJ)
system.mem_ctrls0_1.preEnergy                43175715                       # Energy for precharge commands per rank (pJ)
system.mem_ctrls0_1.readEnergy              166283460                       # Energy for read commands per rank (pJ)
system.mem_ctrls0_1.writeEnergy               7391520                       # Energy for write commands per rank (pJ)
system.mem_ctrls0_1.refreshEnergy        16877399760.000004                       # Energy for refresh commands per rank (pJ)
system.mem_ctrls0_1.actBackEnergy          3571186230                       # Energy for active background per rank (pJ)
system.mem_ctrls0_1.preBackEnergy          1136095200                       # Energy for precharge background per rank (pJ)
system.mem_ctrls0_1.actPowerDownEnergy    32154056250                       # Energy for active power-down per rank (pJ)
system.mem_ctrls0_1.prePowerDownEnergy    26497636800                       # Energy for precharge power-down per rank (pJ)
system.mem_ctrls0_1.selfRefreshEnergy    211769721435                       # Energy for self refresh per rank (pJ)
system.mem_ctrls0_1.totalEnergy          292304334840                       # Total energy per rank (pJ)
system.mem_ctrls0_1.averagePower           288.687374                       # Core power per rank (mW)
system.mem_ctrls0_1.totalIdleTime        1001738677875                       # Total Idle time Per DRAM Rank
system.mem_ctrls0_1.memoryStateTime::IDLE   2387347230                       # Time in different power states
system.mem_ctrls0_1.memoryStateTime::REF   7191960000                       # Time in different power states
system.mem_ctrls0_1.memoryStateTime::SREF 862221051009                       # Time in different power states
system.mem_ctrls0_1.memoryStateTime::PRE_PDN  69004335876                       # Time in different power states
system.mem_ctrls0_1.memoryStateTime::ACT   1211005362                       # Time in different power states
system.mem_ctrls0_1.memoryStateTime::ACT_PDN  70513290990                       # Time in different power states
system.mem_ctrls1.pwrStateResidencyTicks::UNDEFINED 310860410874876                       # Cumulative time (in ticks) in various power states
system.mem_ctrls1.bytes_read::cpu.inst            128                       # Number of bytes read from this memory
system.mem_ctrls1.bytes_read::switch_cpus.inst        25088                       # Number of bytes read from this memory
system.mem_ctrls1.bytes_read::switch_cpus.data      2625600                       # Number of bytes read from this memory
system.mem_ctrls1.bytes_read::switch_cpus_1.inst         8256                       # Number of bytes read from this memory
system.mem_ctrls1.bytes_read::switch_cpus_1.data       335424                       # Number of bytes read from this memory
system.mem_ctrls1.bytes_read::total           2994496                       # Number of bytes read from this memory
system.mem_ctrls1.bytes_inst_read::cpu.inst          128                       # Number of instructions bytes read from this memory
system.mem_ctrls1.bytes_inst_read::switch_cpus.inst        25088                       # Number of instructions bytes read from this memory
system.mem_ctrls1.bytes_inst_read::switch_cpus_1.inst         8256                       # Number of instructions bytes read from this memory
system.mem_ctrls1.bytes_inst_read::total        33472                       # Number of instructions bytes read from this memory
system.mem_ctrls1.bytes_written::writebacks       161152                       # Number of bytes written to this memory
system.mem_ctrls1.bytes_written::total         161152                       # Number of bytes written to this memory
system.mem_ctrls1.num_reads::cpu.inst               2                       # Number of read requests responded to by this memory
system.mem_ctrls1.num_reads::switch_cpus.inst          392                       # Number of read requests responded to by this memory
system.mem_ctrls1.num_reads::switch_cpus.data        41025                       # Number of read requests responded to by this memory
system.mem_ctrls1.num_reads::switch_cpus_1.inst          129                       # Number of read requests responded to by this memory
system.mem_ctrls1.num_reads::switch_cpus_1.data         5241                       # Number of read requests responded to by this memory
system.mem_ctrls1.num_reads::total              46789                       # Number of read requests responded to by this memory
system.mem_ctrls1.num_writes::writebacks         2518                       # Number of write requests responded to by this memory
system.mem_ctrls1.num_writes::total              2518                       # Number of write requests responded to by this memory
system.mem_ctrls1.bw_read::cpu.inst               126                       # Total read bandwidth from this memory (bytes/s)
system.mem_ctrls1.bw_read::switch_cpus.inst        24778                       # Total read bandwidth from this memory (bytes/s)
system.mem_ctrls1.bw_read::switch_cpus.data      2593111                       # Total read bandwidth from this memory (bytes/s)
system.mem_ctrls1.bw_read::switch_cpus_1.inst         8154                       # Total read bandwidth from this memory (bytes/s)
system.mem_ctrls1.bw_read::switch_cpus_1.data       331273                       # Total read bandwidth from this memory (bytes/s)
system.mem_ctrls1.bw_read::total              2957442                       # Total read bandwidth from this memory (bytes/s)
system.mem_ctrls1.bw_inst_read::cpu.inst          126                       # Instruction read bandwidth from this memory (bytes/s)
system.mem_ctrls1.bw_inst_read::switch_cpus.inst        24778                       # Instruction read bandwidth from this memory (bytes/s)
system.mem_ctrls1.bw_inst_read::switch_cpus_1.inst         8154                       # Instruction read bandwidth from this memory (bytes/s)
system.mem_ctrls1.bw_inst_read::total           33058                       # Instruction read bandwidth from this memory (bytes/s)
system.mem_ctrls1.bw_write::writebacks         159158                       # Write bandwidth from this memory (bytes/s)
system.mem_ctrls1.bw_write::total              159158                       # Write bandwidth from this memory (bytes/s)
system.mem_ctrls1.bw_total::writebacks         159158                       # Total bandwidth to/from this memory (bytes/s)
system.mem_ctrls1.bw_total::cpu.inst              126                       # Total bandwidth to/from this memory (bytes/s)
system.mem_ctrls1.bw_total::switch_cpus.inst        24778                       # Total bandwidth to/from this memory (bytes/s)
system.mem_ctrls1.bw_total::switch_cpus.data      2593111                       # Total bandwidth to/from this memory (bytes/s)
system.mem_ctrls1.bw_total::switch_cpus_1.inst         8154                       # Total bandwidth to/from this memory (bytes/s)
system.mem_ctrls1.bw_total::switch_cpus_1.data       331273                       # Total bandwidth to/from this memory (bytes/s)
system.mem_ctrls1.bw_total::total             3116600                       # Total bandwidth to/from this memory (bytes/s)
system.mem_ctrls1.readReqs                      46789                       # Number of read requests accepted
system.mem_ctrls1.writeReqs                      2518                       # Number of write requests accepted
system.mem_ctrls1.readBursts                    46789                       # Number of DRAM read bursts, including those serviced by the write queue
system.mem_ctrls1.writeBursts                    2518                       # Number of DRAM write bursts, including those merged in the write queue
system.mem_ctrls1.bytesReadDRAM               2986304                       # Total number of bytes read from DRAM
system.mem_ctrls1.bytesReadWrQ                   8192                       # Total number of bytes read from write queue
system.mem_ctrls1.bytesWritten                 159680                       # Total number of bytes written to DRAM
system.mem_ctrls1.bytesReadSys                2994496                       # Total read bytes from the system interface side
system.mem_ctrls1.bytesWrittenSys              161152                       # Total written bytes from the system interface side
system.mem_ctrls1.servicedByWrQ                   128                       # Number of DRAM read bursts serviced by the write queue
system.mem_ctrls1.mergedWrBursts                    0                       # Number of DRAM write bursts merged with an existing one
system.mem_ctrls1.neitherReadNorWriteReqs            0                       # Number of requests that are neither read nor write
system.mem_ctrls1.perBankRdBursts::0             3115                       # Per bank write bursts
system.mem_ctrls1.perBankRdBursts::1             3052                       # Per bank write bursts
system.mem_ctrls1.perBankRdBursts::2             2858                       # Per bank write bursts
system.mem_ctrls1.perBankRdBursts::3             2743                       # Per bank write bursts
system.mem_ctrls1.perBankRdBursts::4             2667                       # Per bank write bursts
system.mem_ctrls1.perBankRdBursts::5             2784                       # Per bank write bursts
system.mem_ctrls1.perBankRdBursts::6             3029                       # Per bank write bursts
system.mem_ctrls1.perBankRdBursts::7             3157                       # Per bank write bursts
system.mem_ctrls1.perBankRdBursts::8             3335                       # Per bank write bursts
system.mem_ctrls1.perBankRdBursts::9             3287                       # Per bank write bursts
system.mem_ctrls1.perBankRdBursts::10            2857                       # Per bank write bursts
system.mem_ctrls1.perBankRdBursts::11            2556                       # Per bank write bursts
system.mem_ctrls1.perBankRdBursts::12            2686                       # Per bank write bursts
system.mem_ctrls1.perBankRdBursts::13            2694                       # Per bank write bursts
system.mem_ctrls1.perBankRdBursts::14            2924                       # Per bank write bursts
system.mem_ctrls1.perBankRdBursts::15            2917                       # Per bank write bursts
system.mem_ctrls1.perBankWrBursts::0              333                       # Per bank write bursts
system.mem_ctrls1.perBankWrBursts::1              264                       # Per bank write bursts
system.mem_ctrls1.perBankWrBursts::2              125                       # Per bank write bursts
system.mem_ctrls1.perBankWrBursts::3               88                       # Per bank write bursts
system.mem_ctrls1.perBankWrBursts::4               62                       # Per bank write bursts
system.mem_ctrls1.perBankWrBursts::5               16                       # Per bank write bursts
system.mem_ctrls1.perBankWrBursts::6              118                       # Per bank write bursts
system.mem_ctrls1.perBankWrBursts::7              128                       # Per bank write bursts
system.mem_ctrls1.perBankWrBursts::8              206                       # Per bank write bursts
system.mem_ctrls1.perBankWrBursts::9              325                       # Per bank write bursts
system.mem_ctrls1.perBankWrBursts::10             124                       # Per bank write bursts
system.mem_ctrls1.perBankWrBursts::11              64                       # Per bank write bursts
system.mem_ctrls1.perBankWrBursts::12              53                       # Per bank write bursts
system.mem_ctrls1.perBankWrBursts::13              34                       # Per bank write bursts
system.mem_ctrls1.perBankWrBursts::14             255                       # Per bank write bursts
system.mem_ctrls1.perBankWrBursts::15             300                       # Per bank write bursts
system.mem_ctrls1.numRdRetry                        0                       # Number of times read queue was full causing retry
system.mem_ctrls1.numWrRetry                        0                       # Number of times write queue was full causing retry
system.mem_ctrls1.totGap                 1012528781343                       # Total gap between requests
system.mem_ctrls1.readPktSize::0                    0                       # Read request sizes (log2)
system.mem_ctrls1.readPktSize::1                    0                       # Read request sizes (log2)
system.mem_ctrls1.readPktSize::2                    0                       # Read request sizes (log2)
system.mem_ctrls1.readPktSize::3                    0                       # Read request sizes (log2)
system.mem_ctrls1.readPktSize::4                    0                       # Read request sizes (log2)
system.mem_ctrls1.readPktSize::5                    0                       # Read request sizes (log2)
system.mem_ctrls1.readPktSize::6                46789                       # Read request sizes (log2)
system.mem_ctrls1.writePktSize::0                   0                       # Write request sizes (log2)
system.mem_ctrls1.writePktSize::1                   0                       # Write request sizes (log2)
system.mem_ctrls1.writePktSize::2                   0                       # Write request sizes (log2)
system.mem_ctrls1.writePktSize::3                   0                       # Write request sizes (log2)
system.mem_ctrls1.writePktSize::4                   0                       # Write request sizes (log2)
system.mem_ctrls1.writePktSize::5                   0                       # Write request sizes (log2)
system.mem_ctrls1.writePktSize::6                2518                       # Write request sizes (log2)
system.mem_ctrls1.rdQLenPdf::0                  45364                       # What read queue length does an incoming req see
system.mem_ctrls1.rdQLenPdf::1                   1296                       # What read queue length does an incoming req see
system.mem_ctrls1.rdQLenPdf::2                      1                       # What read queue length does an incoming req see
system.mem_ctrls1.rdQLenPdf::3                      0                       # What read queue length does an incoming req see
system.mem_ctrls1.rdQLenPdf::4                      0                       # What read queue length does an incoming req see
system.mem_ctrls1.rdQLenPdf::5                      0                       # What read queue length does an incoming req see
system.mem_ctrls1.rdQLenPdf::6                      0                       # What read queue length does an incoming req see
system.mem_ctrls1.rdQLenPdf::7                      0                       # What read queue length does an incoming req see
system.mem_ctrls1.rdQLenPdf::8                      0                       # What read queue length does an incoming req see
system.mem_ctrls1.rdQLenPdf::9                      0                       # What read queue length does an incoming req see
system.mem_ctrls1.rdQLenPdf::10                     0                       # What read queue length does an incoming req see
system.mem_ctrls1.rdQLenPdf::11                     0                       # What read queue length does an incoming req see
system.mem_ctrls1.rdQLenPdf::12                     0                       # What read queue length does an incoming req see
system.mem_ctrls1.rdQLenPdf::13                     0                       # What read queue length does an incoming req see
system.mem_ctrls1.rdQLenPdf::14                     0                       # What read queue length does an incoming req see
system.mem_ctrls1.rdQLenPdf::15                     0                       # What read queue length does an incoming req see
system.mem_ctrls1.rdQLenPdf::16                     0                       # What read queue length does an incoming req see
system.mem_ctrls1.rdQLenPdf::17                     0                       # What read queue length does an incoming req see
system.mem_ctrls1.rdQLenPdf::18                     0                       # What read queue length does an incoming req see
system.mem_ctrls1.rdQLenPdf::19                     0                       # What read queue length does an incoming req see
system.mem_ctrls1.rdQLenPdf::20                     0                       # What read queue length does an incoming req see
system.mem_ctrls1.rdQLenPdf::21                     0                       # What read queue length does an incoming req see
system.mem_ctrls1.rdQLenPdf::22                     0                       # What read queue length does an incoming req see
system.mem_ctrls1.rdQLenPdf::23                     0                       # What read queue length does an incoming req see
system.mem_ctrls1.rdQLenPdf::24                     0                       # What read queue length does an incoming req see
system.mem_ctrls1.rdQLenPdf::25                     0                       # What read queue length does an incoming req see
system.mem_ctrls1.rdQLenPdf::26                     0                       # What read queue length does an incoming req see
system.mem_ctrls1.rdQLenPdf::27                     0                       # What read queue length does an incoming req see
system.mem_ctrls1.rdQLenPdf::28                     0                       # What read queue length does an incoming req see
system.mem_ctrls1.rdQLenPdf::29                     0                       # What read queue length does an incoming req see
system.mem_ctrls1.rdQLenPdf::30                     0                       # What read queue length does an incoming req see
system.mem_ctrls1.rdQLenPdf::31                     0                       # What read queue length does an incoming req see
system.mem_ctrls1.wrQLenPdf::0                      2                       # What write queue length does an incoming req see
system.mem_ctrls1.wrQLenPdf::1                      2                       # What write queue length does an incoming req see
system.mem_ctrls1.wrQLenPdf::2                      2                       # What write queue length does an incoming req see
system.mem_ctrls1.wrQLenPdf::3                      2                       # What write queue length does an incoming req see
system.mem_ctrls1.wrQLenPdf::4                      2                       # What write queue length does an incoming req see
system.mem_ctrls1.wrQLenPdf::5                      2                       # What write queue length does an incoming req see
system.mem_ctrls1.wrQLenPdf::6                      2                       # What write queue length does an incoming req see
system.mem_ctrls1.wrQLenPdf::7                      2                       # What write queue length does an incoming req see
system.mem_ctrls1.wrQLenPdf::8                      2                       # What write queue length does an incoming req see
system.mem_ctrls1.wrQLenPdf::9                      2                       # What write queue length does an incoming req see
system.mem_ctrls1.wrQLenPdf::10                     2                       # What write queue length does an incoming req see
system.mem_ctrls1.wrQLenPdf::11                     2                       # What write queue length does an incoming req see
system.mem_ctrls1.wrQLenPdf::12                     2                       # What write queue length does an incoming req see
system.mem_ctrls1.wrQLenPdf::13                     2                       # What write queue length does an incoming req see
system.mem_ctrls1.wrQLenPdf::14                     2                       # What write queue length does an incoming req see
system.mem_ctrls1.wrQLenPdf::15                    95                       # What write queue length does an incoming req see
system.mem_ctrls1.wrQLenPdf::16                    97                       # What write queue length does an incoming req see
system.mem_ctrls1.wrQLenPdf::17                   130                       # What write queue length does an incoming req see
system.mem_ctrls1.wrQLenPdf::18                   142                       # What write queue length does an incoming req see
system.mem_ctrls1.wrQLenPdf::19                   145                       # What write queue length does an incoming req see
system.mem_ctrls1.wrQLenPdf::20                   145                       # What write queue length does an incoming req see
system.mem_ctrls1.wrQLenPdf::21                   145                       # What write queue length does an incoming req see
system.mem_ctrls1.wrQLenPdf::22                   146                       # What write queue length does an incoming req see
system.mem_ctrls1.wrQLenPdf::23                   143                       # What write queue length does an incoming req see
system.mem_ctrls1.wrQLenPdf::24                   144                       # What write queue length does an incoming req see
system.mem_ctrls1.wrQLenPdf::25                   143                       # What write queue length does an incoming req see
system.mem_ctrls1.wrQLenPdf::26                   143                       # What write queue length does an incoming req see
system.mem_ctrls1.wrQLenPdf::27                   143                       # What write queue length does an incoming req see
system.mem_ctrls1.wrQLenPdf::28                   145                       # What write queue length does an incoming req see
system.mem_ctrls1.wrQLenPdf::29                   149                       # What write queue length does an incoming req see
system.mem_ctrls1.wrQLenPdf::30                   145                       # What write queue length does an incoming req see
system.mem_ctrls1.wrQLenPdf::31                   142                       # What write queue length does an incoming req see
system.mem_ctrls1.wrQLenPdf::32                   141                       # What write queue length does an incoming req see
system.mem_ctrls1.wrQLenPdf::33                     3                       # What write queue length does an incoming req see
system.mem_ctrls1.wrQLenPdf::34                     2                       # What write queue length does an incoming req see
system.mem_ctrls1.wrQLenPdf::35                     0                       # What write queue length does an incoming req see
system.mem_ctrls1.wrQLenPdf::36                     0                       # What write queue length does an incoming req see
system.mem_ctrls1.wrQLenPdf::37                     0                       # What write queue length does an incoming req see
system.mem_ctrls1.wrQLenPdf::38                     0                       # What write queue length does an incoming req see
system.mem_ctrls1.wrQLenPdf::39                     0                       # What write queue length does an incoming req see
system.mem_ctrls1.wrQLenPdf::40                     0                       # What write queue length does an incoming req see
system.mem_ctrls1.wrQLenPdf::41                     0                       # What write queue length does an incoming req see
system.mem_ctrls1.wrQLenPdf::42                     0                       # What write queue length does an incoming req see
system.mem_ctrls1.wrQLenPdf::43                     0                       # What write queue length does an incoming req see
system.mem_ctrls1.wrQLenPdf::44                     0                       # What write queue length does an incoming req see
system.mem_ctrls1.wrQLenPdf::45                     0                       # What write queue length does an incoming req see
system.mem_ctrls1.wrQLenPdf::46                     0                       # What write queue length does an incoming req see
system.mem_ctrls1.wrQLenPdf::47                     0                       # What write queue length does an incoming req see
system.mem_ctrls1.wrQLenPdf::48                     0                       # What write queue length does an incoming req see
system.mem_ctrls1.wrQLenPdf::49                     0                       # What write queue length does an incoming req see
system.mem_ctrls1.wrQLenPdf::50                     0                       # What write queue length does an incoming req see
system.mem_ctrls1.wrQLenPdf::51                     0                       # What write queue length does an incoming req see
system.mem_ctrls1.wrQLenPdf::52                     0                       # What write queue length does an incoming req see
system.mem_ctrls1.wrQLenPdf::53                     0                       # What write queue length does an incoming req see
system.mem_ctrls1.wrQLenPdf::54                     0                       # What write queue length does an incoming req see
system.mem_ctrls1.wrQLenPdf::55                     0                       # What write queue length does an incoming req see
system.mem_ctrls1.wrQLenPdf::56                     0                       # What write queue length does an incoming req see
system.mem_ctrls1.wrQLenPdf::57                     0                       # What write queue length does an incoming req see
system.mem_ctrls1.wrQLenPdf::58                     0                       # What write queue length does an incoming req see
system.mem_ctrls1.wrQLenPdf::59                     0                       # What write queue length does an incoming req see
system.mem_ctrls1.wrQLenPdf::60                     0                       # What write queue length does an incoming req see
system.mem_ctrls1.wrQLenPdf::61                     0                       # What write queue length does an incoming req see
system.mem_ctrls1.wrQLenPdf::62                     0                       # What write queue length does an incoming req see
system.mem_ctrls1.wrQLenPdf::63                     0                       # What write queue length does an incoming req see
system.mem_ctrls1.bytesPerActivate::samples        23901                       # Bytes accessed per row activation
system.mem_ctrls1.bytesPerActivate::mean   131.604201                       # Bytes accessed per row activation
system.mem_ctrls1.bytesPerActivate::gmean   115.471023                       # Bytes accessed per row activation
system.mem_ctrls1.bytesPerActivate::stdev   113.471891                       # Bytes accessed per row activation
system.mem_ctrls1.bytesPerActivate::0-127         5451     22.81%     22.81% # Bytes accessed per row activation
system.mem_ctrls1.bytesPerActivate::128-255        17587     73.58%     96.39% # Bytes accessed per row activation
system.mem_ctrls1.bytesPerActivate::256-383          224      0.94%     97.33% # Bytes accessed per row activation
system.mem_ctrls1.bytesPerActivate::384-511          143      0.60%     97.92% # Bytes accessed per row activation
system.mem_ctrls1.bytesPerActivate::512-639          103      0.43%     98.36% # Bytes accessed per row activation
system.mem_ctrls1.bytesPerActivate::640-767           81      0.34%     98.69% # Bytes accessed per row activation
system.mem_ctrls1.bytesPerActivate::768-895           48      0.20%     98.90% # Bytes accessed per row activation
system.mem_ctrls1.bytesPerActivate::896-1023           36      0.15%     99.05% # Bytes accessed per row activation
system.mem_ctrls1.bytesPerActivate::1024-1151          228      0.95%    100.00% # Bytes accessed per row activation
system.mem_ctrls1.bytesPerActivate::total        23901                       # Bytes accessed per row activation
system.mem_ctrls1.rdPerTurnAround::samples          142                       # Reads before turning the bus around for writes
system.mem_ctrls1.rdPerTurnAround::mean    328.598592                       # Reads before turning the bus around for writes
system.mem_ctrls1.rdPerTurnAround::stdev  3260.847327                       # Reads before turning the bus around for writes
system.mem_ctrls1.rdPerTurnAround::0-2047          141     99.30%     99.30% # Reads before turning the bus around for writes
system.mem_ctrls1.rdPerTurnAround::36864-38911            1      0.70%    100.00% # Reads before turning the bus around for writes
system.mem_ctrls1.rdPerTurnAround::total          142                       # Reads before turning the bus around for writes
system.mem_ctrls1.wrPerTurnAround::samples          142                       # Writes before turning the bus around for reads
system.mem_ctrls1.wrPerTurnAround::mean     17.570423                       # Writes before turning the bus around for reads
system.mem_ctrls1.wrPerTurnAround::gmean    17.524032                       # Writes before turning the bus around for reads
system.mem_ctrls1.wrPerTurnAround::stdev     1.306817                       # Writes before turning the bus around for reads
system.mem_ctrls1.wrPerTurnAround::16              45     31.69%     31.69% # Writes before turning the bus around for reads
system.mem_ctrls1.wrPerTurnAround::17               3      2.11%     33.80% # Writes before turning the bus around for reads
system.mem_ctrls1.wrPerTurnAround::18              73     51.41%     85.21% # Writes before turning the bus around for reads
system.mem_ctrls1.wrPerTurnAround::19              15     10.56%     95.77% # Writes before turning the bus around for reads
system.mem_ctrls1.wrPerTurnAround::20               5      3.52%     99.30% # Writes before turning the bus around for reads
system.mem_ctrls1.wrPerTurnAround::25               1      0.70%    100.00% # Writes before turning the bus around for reads
system.mem_ctrls1.wrPerTurnAround::total          142                       # Writes before turning the bus around for reads
system.mem_ctrls1.totQLat                  9381371486                       # Total ticks spent queuing
system.mem_ctrls1.totMemAccLat            10256265236                       # Total ticks spent from burst creation until serviced by the DRAM
system.mem_ctrls1.totBusLat                 233305000                       # Total ticks spent in databus transfers
system.mem_ctrls1.avgQLat                   201053.80                       # Average queueing delay per DRAM burst
system.mem_ctrls1.avgBusLat                   5000.00                       # Average bus latency per DRAM burst
system.mem_ctrls1.avgMemAccLat              219803.80                       # Average memory access latency per DRAM burst
system.mem_ctrls1.avgRdBW                        2.95                       # Average DRAM read bandwidth in MiByte/s
system.mem_ctrls1.avgWrBW                        0.16                       # Average achieved write bandwidth in MiByte/s
system.mem_ctrls1.avgRdBWSys                     2.96                       # Average system read bandwidth in MiByte/s
system.mem_ctrls1.avgWrBWSys                     0.16                       # Average system write bandwidth in MiByte/s
system.mem_ctrls1.peakBW                     12800.00                       # Theoretical peak bandwidth in MiByte/s
system.mem_ctrls1.busUtil                        0.02                       # Data bus utilization in percentage
system.mem_ctrls1.busUtilRead                    0.02                       # Data bus utilization in percentage for reads
system.mem_ctrls1.busUtilWrite                   0.00                       # Data bus utilization in percentage for writes
system.mem_ctrls1.avgRdQLen                      1.00                       # Average read queue length when enqueuing
system.mem_ctrls1.avgWrQLen                      7.74                       # Average write queue length when enqueuing
system.mem_ctrls1.readRowHits                   23564                       # Number of row buffer hits during reads
system.mem_ctrls1.writeRowHits                   1685                       # Number of row buffer hits during writes
system.mem_ctrls1.readRowHitRate                50.50                       # Row buffer hit rate for reads
system.mem_ctrls1.writeRowHitRate               66.92                       # Row buffer hit rate for writes
system.mem_ctrls1.avgGap                  20535193.41                       # Average gap between requests
system.mem_ctrls1.pageHitRate                   51.34                       # Row buffer hit rate, read and write combined
system.mem_ctrls1_0.actEnergy                89435640                       # Energy for activate commands per rank (pJ)
system.mem_ctrls1_0.preEnergy                47524785                       # Energy for precharge commands per rank (pJ)
system.mem_ctrls1_0.readEnergy              167111700                       # Energy for read commands per rank (pJ)
system.mem_ctrls1_0.writeEnergy               5919480                       # Energy for write commands per rank (pJ)
system.mem_ctrls1_0.refreshEnergy        15719418000.000004                       # Energy for refresh commands per rank (pJ)
system.mem_ctrls1_0.actBackEnergy          3386581470                       # Energy for active background per rank (pJ)
system.mem_ctrls1_0.preBackEnergy          1036295520                       # Energy for precharge background per rank (pJ)
system.mem_ctrls1_0.actPowerDownEnergy    30919390650                       # Energy for active power-down per rank (pJ)
system.mem_ctrls1_0.prePowerDownEnergy    24374977920                       # Energy for precharge power-down per rank (pJ)
system.mem_ctrls1_0.selfRefreshEnergy    213466159995                       # Energy for self refresh per rank (pJ)
system.mem_ctrls1_0.totalEnergy          289213016820                       # Total energy per rank (pJ)
system.mem_ctrls1_0.averagePower           285.634307                       # Core power per rank (mW)
system.mem_ctrls1_0.totalIdleTime        1002402797775                       # Total Idle time Per DRAM Rank
system.mem_ctrls1_0.memoryStateTime::IDLE   2164794566                       # Time in different power states
system.mem_ctrls1_0.memoryStateTime::REF   6697278000                       # Time in different power states
system.mem_ctrls1_0.memoryStateTime::SREF 871120903766                       # Time in different power states
system.mem_ctrls1_0.memoryStateTime::PRE_PDN  63476289320                       # Time in different power states
system.mem_ctrls1_0.memoryStateTime::ACT   1264120126                       # Time in different power states
system.mem_ctrls1_0.memoryStateTime::ACT_PDN  67805604689                       # Time in different power states
system.mem_ctrls1_1.actEnergy                81260340                       # Energy for activate commands per rank (pJ)
system.mem_ctrls1_1.preEnergy                43179510                       # Energy for precharge commands per rank (pJ)
system.mem_ctrls1_1.readEnergy              166047840                       # Energy for read commands per rank (pJ)
system.mem_ctrls1_1.writeEnergy               7104420                       # Energy for write commands per rank (pJ)
system.mem_ctrls1_1.refreshEnergy        16842979920.000004                       # Energy for refresh commands per rank (pJ)
system.mem_ctrls1_1.actBackEnergy          3557166510                       # Energy for active background per rank (pJ)
system.mem_ctrls1_1.preBackEnergy          1133004480                       # Energy for precharge background per rank (pJ)
system.mem_ctrls1_1.actPowerDownEnergy    32182672530                       # Energy for active power-down per rank (pJ)
system.mem_ctrls1_1.prePowerDownEnergy    26408485920                       # Energy for precharge power-down per rank (pJ)
system.mem_ctrls1_1.selfRefreshEnergy    211802716620                       # Energy for self refresh per rank (pJ)
system.mem_ctrls1_1.totalEnergy          292225034250                       # Total energy per rank (pJ)
system.mem_ctrls1_1.averagePower           288.609054                       # Core power per rank (mW)
system.mem_ctrls1_1.totalIdleTime        1001776601679                       # Total Idle time Per DRAM Rank
system.mem_ctrls1_1.memoryStateTime::IDLE   2381012880                       # Time in different power states
system.mem_ctrls1_1.memoryStateTime::REF   7177160000                       # Time in different power states
system.mem_ctrls1_1.memoryStateTime::SREF 862428559316                       # Time in different power states
system.mem_ctrls1_1.memoryStateTime::PRE_PDN  68772218761                       # Time in different power states
system.mem_ctrls1_1.memoryStateTime::ACT   1194215908                       # Time in different power states
system.mem_ctrls1_1.memoryStateTime::ACT_PDN  70575823602                       # Time in different power states
system.pwrStateResidencyTicks::UNDEFINED 310860410874876                       # Cumulative time (in ticks) in various power states
system.cpu.branchPred.lookups                       1                       # Number of BP lookups
system.cpu.branchPred.condPredicted                 0                       # Number of conditional branches predicted
system.cpu.branchPred.condIncorrect                 1                       # Number of conditional branches incorrect
system.cpu.branchPred.BTBLookups                    0                       # Number of BTB lookups
system.cpu.branchPred.BTBHits                       0                       # Number of BTB hits
system.cpu.branchPred.BTBCorrect                    0                       # Number of correct BTB predictions (this stat may not work properly.
system.cpu.branchPred.BTBHitPct                   nan                       # BTB Hit Percentage
system.cpu.branchPred.usedRAS                       1                       # Number of times the RAS was used to get a target.
system.cpu.branchPred.RASInCorrect                  1                       # Number of incorrect RAS predictions.
system.cpu.branchPred.indirectLookups               0                       # Number of indirect predictor lookups.
system.cpu.branchPred.indirectHits                  0                       # Number of indirect target hits.
system.cpu.branchPred.indirectMisses                0                       # Number of indirect misses.
system.cpu.branchPredindirectMispredicted            0                       # Number of mispredicted indirect branches.
system.cpu_voltage_domain.voltage                   1                       # Voltage in Volts
system.cpu_clk_domain.clock                       333                       # Clock period in ticks
system.cpu.dtb.fetch_hits                           0                       # ITB hits
system.cpu.dtb.fetch_misses                         0                       # ITB misses
system.cpu.dtb.fetch_acv                            0                       # ITB acv
system.cpu.dtb.fetch_accesses                       0                       # ITB accesses
system.cpu.dtb.read_hits                            0                       # DTB read hits
system.cpu.dtb.read_misses                          0                       # DTB read misses
system.cpu.dtb.read_acv                             0                       # DTB read access violations
system.cpu.dtb.read_accesses                        0                       # DTB read accesses
system.cpu.dtb.write_hits                           0                       # DTB write hits
system.cpu.dtb.write_misses                         0                       # DTB write misses
system.cpu.dtb.write_acv                            0                       # DTB write access violations
system.cpu.dtb.write_accesses                       0                       # DTB write accesses
system.cpu.dtb.data_hits                            0                       # DTB hits
system.cpu.dtb.data_misses                          0                       # DTB misses
system.cpu.dtb.data_acv                             0                       # DTB access violations
system.cpu.dtb.data_accesses                        0                       # DTB accesses
system.cpu.itb.fetch_hits                           4                       # ITB hits
system.cpu.itb.fetch_misses                         1                       # ITB misses
system.cpu.itb.fetch_acv                            0                       # ITB acv
system.cpu.itb.fetch_accesses                       5                       # ITB accesses
system.cpu.itb.read_hits                            0                       # DTB read hits
system.cpu.itb.read_misses                          0                       # DTB read misses
system.cpu.itb.read_acv                             0                       # DTB read access violations
system.cpu.itb.read_accesses                        0                       # DTB read accesses
system.cpu.itb.write_hits                           0                       # DTB write hits
system.cpu.itb.write_misses                         0                       # DTB write misses
system.cpu.itb.write_acv                            0                       # DTB write access violations
system.cpu.itb.write_accesses                       0                       # DTB write accesses
system.cpu.itb.data_hits                            0                       # DTB hits
system.cpu.itb.data_misses                          0                       # DTB misses
system.cpu.itb.data_acv                             0                       # DTB access violations
system.cpu.itb.data_accesses                        0                       # DTB accesses
system.cpu.workload.num_syscalls                    0                       # Number of system calls
system.cpu.pwrStateResidencyTicks::ON    1012528990467                       # Cumulative time (in ticks) in various power states
system.cpu.numCycles                              973                       # number of cpu cycles simulated
system.cpu.numWorkItemsStarted                      0                       # number of work items this cpu started
system.cpu.numWorkItemsCompleted                    0                       # number of work items this cpu completed
system.cpu.fetch.icacheStallCycles                 27                       # Number of cycles fetch is stalled on an Icache miss
system.cpu.fetch.Insts                              7                       # Number of instructions fetch has processed
system.cpu.fetch.Branches                           1                       # Number of branches that fetch encountered
system.cpu.fetch.predictedBranches                  1                       # Number of branches that fetch has predicted taken
system.cpu.fetch.Cycles                             2                       # Number of cycles fetch has run and was not squashing or blocked
system.cpu.fetch.SquashCycles                       5                       # Number of cycles fetch has spent squashing
system.cpu.fetch.PendingDrainCycles                 3                       # Number of cycles fetch has spent waiting on pipes to drain
system.cpu.fetch.PendingTrapStallCycles             6                       # Number of stall cycles due to pending traps
system.cpu.fetch.CacheLines                         4                       # Number of cache lines fetched
system.cpu.fetch.IcacheSquashes                     2                       # Number of outstanding Icache misses that were squashed
system.cpu.fetch.rateDist::samples                 40                       # Number of instructions fetched each cycle (Total)
system.cpu.fetch.rateDist::mean              0.175000                       # Number of instructions fetched each cycle (Total)
system.cpu.fetch.rateDist::stdev             0.957762                       # Number of instructions fetched each cycle (Total)
system.cpu.fetch.rateDist::underflows               0      0.00%      0.00% # Number of instructions fetched each cycle (Total)
system.cpu.fetch.rateDist::0                       38     95.00%     95.00% # Number of instructions fetched each cycle (Total)
system.cpu.fetch.rateDist::1                        1      2.50%     97.50% # Number of instructions fetched each cycle (Total)
system.cpu.fetch.rateDist::2                        0      0.00%     97.50% # Number of instructions fetched each cycle (Total)
system.cpu.fetch.rateDist::3                        0      0.00%     97.50% # Number of instructions fetched each cycle (Total)
system.cpu.fetch.rateDist::4                        0      0.00%     97.50% # Number of instructions fetched each cycle (Total)
system.cpu.fetch.rateDist::5                        0      0.00%     97.50% # Number of instructions fetched each cycle (Total)
system.cpu.fetch.rateDist::6                        1      2.50%    100.00% # Number of instructions fetched each cycle (Total)
system.cpu.fetch.rateDist::7                        0      0.00%    100.00% # Number of instructions fetched each cycle (Total)
system.cpu.fetch.rateDist::8                        0      0.00%    100.00% # Number of instructions fetched each cycle (Total)
system.cpu.fetch.rateDist::overflows                0      0.00%    100.00% # Number of instructions fetched each cycle (Total)
system.cpu.fetch.rateDist::min_value                0                       # Number of instructions fetched each cycle (Total)
system.cpu.fetch.rateDist::max_value                6                       # Number of instructions fetched each cycle (Total)
system.cpu.fetch.rateDist::total                   40                       # Number of instructions fetched each cycle (Total)
system.cpu.fetch.branchRate                  0.001028                       # Number of branch fetches per cycle
system.cpu.fetch.rate                        0.007194                       # Number of inst fetches per cycle
system.cpu.decode.IdleCycles                       35                       # Number of cycles decode is idle
system.cpu.decode.RunCycles                         2                       # Number of cycles decode is running
system.cpu.decode.SquashCycles                      3                       # Number of cycles decode is squashing
[...]
system.switch_cpus_1.iq.int_inst_queue_writes     89894745                       # Number of integer instruction queue writes
system.switch_cpus_1.iq.int_inst_queue_wakeup_accesses     83815503                       # Number of integer instruction queue wakeup accesses
system.switch_cpus_1.iq.fp_inst_queue_reads    266764272                       # Number of floating instruction queue reads
system.switch_cpus_1.iq.fp_inst_queue_writes    142382243                       # Number of floating instruction queue writes
system.switch_cpus_1.iq.fp_inst_queue_wakeup_accesses    125822087                       # Number of floating instruction queue wakeup accesses
system.switch_cpus_1.iq.int_alu_accesses     84869006                       # Number of integer alu accesses
system.switch_cpus_1.iq.fp_alu_accesses     135844380                       # Number of floating point alu accesses
system.switch_cpus_1.iew.lsq.thread0.forwLoads      4027049                       # Number of loads that had data forwarded from stores
system.switch_cpus_1.iew.lsq.thread0.invAddrLoads            0                       # Number of loads ignored due to an invalid address
system.switch_cpus_1.iew.lsq.thread0.squashedLoads      3318604                       # Number of loads squashed
system.switch_cpus_1.iew.lsq.thread0.ignoredResponses         4776                       # Number of memory responses ignored because the instruction is squashed
system.switch_cpus_1.iew.lsq.thread0.memOrderViolation         5860                       # Number of memory ordering violations
system.switch_cpus_1.iew.lsq.thread0.squashedStores       558272                       # Number of stores squashed
system.switch_cpus_1.iew.lsq.thread0.invAddrSwpfs            0                       # Number of software prefetches ignored due to an invalid address
system.switch_cpus_1.iew.lsq.thread0.blockedLoads            0                       # Number of blocked loads due to partial load-store forwarding
system.switch_cpus_1.iew.lsq.thread0.rescheduledLoads            3                       # Number of loads that were rescheduled
system.switch_cpus_1.iew.lsq.thread0.cacheBlocked      5344251                       # Number of times an access to memory failed due to the cache being blocked
system.switch_cpus_1.iew.iewIdleCycles              0                       # Number of cycles IEW is idle
system.switch_cpus_1.iew.iewSquashCycles       223438                       # Number of cycles IEW is squashing
system.switch_cpus_1.iew.iewBlockCycles      16909437                       # Number of cycles IEW is blocking
system.switch_cpus_1.iew.iewUnblockCycles      3209990                       # Number of cycles IEW is unblocking
system.switch_cpus_1.iew.iewDispatchedInsts    222179391                       # Number of instructions dispatched to IQ
system.switch_cpus_1.iew.iewDispSquashedInsts         2342                       # Number of squashed instructions skipped by dispatch
system.switch_cpus_1.iew.iewDispLoadInsts     33490423                       # Number of dispatched load instructions
system.switch_cpus_1.iew.iewDispStoreInsts     13365064                       # Number of dispatched store instructions
system.switch_cpus_1.iew.iewDispNonSpecInsts          889                       # Number of dispatched non-speculative instructions
system.switch_cpus_1.iew.iewIQFullEvents       968989                       # Number of times the IQ has become full, causing a stall
system.switch_cpus_1.iew.iewLSQFullEvents      2006052                       # Number of times the LSQ has become full, causing a stall
system.switch_cpus_1.iew.memOrderViolationEvents         5860                       # Number of memory order violations
system.switch_cpus_1.iew.predictedTakenIncorrect       117245                       # Number of branches that were predicted taken incorrectly
system.switch_cpus_1.iew.predictedNotTakenIncorrect       103607                       # Number of branches that were predicted not taken incorrectly
system.switch_cpus_1.iew.branchMispredicts       220852                       # Number of branch mispredicts detected at execute
system.switch_cpus_1.iew.iewExecutedInsts    214715994                       # Number of executed instructions
system.switch_cpus_1.iew.iewExecLoadInsts     37570477                       # Number of load instructions executed
system.switch_cpus_1.iew.iewExecSquashedInsts       264717                       # Number of squashed instructions skipped in execute
system.switch_cpus_1.iew.exec_swp                   0                       # number of swp insts executed
system.switch_cpus_1.iew.exec_nop             6043768                       # number of nop insts executed
system.switch_cpus_1.iew.exec_refs           50621059                       # number of memory reference insts executed
system.switch_cpus_1.iew.exec_branches       17889158                       # Number of branches executed
system.switch_cpus_1.iew.exec_stores         13050582                       # Number of stores executed
system.switch_cpus_1.iew.exec_rate           1.685358                       # Inst execution rate
system.switch_cpus_1.iew.wb_sent            209764009                       # cumulative count of insts sent to commit
system.switch_cpus_1.iew.wb_count           209637590                       # cumulative count of insts written-back
system.switch_cpus_1.iew.wb_producers       157496532                       # num instructions producing a value
system.switch_cpus_1.iew.wb_consumers       226993727                       # num instructions consuming a value
system.switch_cpus_1.iew.wb_rate             1.645497                       # insts written-back per cycle
system.switch_cpus_1.iew.wb_fanout           0.693836                       # average fanout of values written-back
system.switch_cpus_1.commit.commitSquashedInsts     16558066                       # The number of squashed insts skipped by commit
system.switch_cpus_1.commit.commitNonSpecStalls         1060                       # The number of times commit has been forced to stall to communicate backwards
system.switch_cpus_1.commit.branchMispredicts       212737                       # The number of times a branch was mispredicted
system.switch_cpus_1.commit.committed_per_cycle::samples    124985174                       # Number of insts commited each cycle
system.switch_cpus_1.commit.committed_per_cycle::mean     1.644897                       # Number of insts commited each cycle
system.switch_cpus_1.commit.committed_per_cycle::stdev     2.788181                       # Number of insts commited each cycle
system.switch_cpus_1.commit.committed_per_cycle::underflows            0      0.00%      0.00% # Number of insts commited each cycle
system.switch_cpus_1.commit.committed_per_cycle::0     72554519     58.05%     58.05% # Number of insts commited each cycle
system.switch_cpus_1.commit.committed_per_cycle::1     22059113     17.65%     75.70% # Number of insts commited each cycle
system.switch_cpus_1.commit.committed_per_cycle::2      4729274      3.78%     79.48% # Number of insts commited each cycle
system.switch_cpus_1.commit.committed_per_cycle::3      2905486      2.32%     81.81% # Number of insts commited each cycle
system.switch_cpus_1.commit.committed_per_cycle::4      2153633      1.72%     83.53% # Number of insts commited each cycle
system.switch_cpus_1.commit.committed_per_cycle::5       907274      0.73%     84.26% # Number of insts commited each cycle
system.switch_cpus_1.commit.committed_per_cycle::6      2171008      1.74%     85.99% # Number of insts commited each cycle
system.switch_cpus_1.commit.committed_per_cycle::7       862227      0.69%     86.68% # Number of insts commited each cycle
system.switch_cpus_1.commit.committed_per_cycle::8     16642640     13.32%    100.00% # Number of insts commited each cycle
system.switch_cpus_1.commit.committed_per_cycle::overflows            0      0.00%    100.00% # Number of insts commited each cycle
system.switch_cpus_1.commit.committed_per_cycle::min_value            0                       # Number of insts commited each cycle
system.switch_cpus_1.commit.committed_per_cycle::max_value            8                       # Number of insts commited each cycle
system.switch_cpus_1.commit.committed_per_cycle::total    124985174                       # Number of insts commited each cycle
system.switch_cpus_1.commit.committedInsts    205587778                       # Number of instructions committed
system.switch_cpus_1.commit.committedOps    205587778                       # Number of ops (including micro ops) committed
system.switch_cpus_1.commit.swp_count               0                       # Number of s/w prefetches committed
system.switch_cpus_1.commit.refs             42978589                       # Number of memory references committed
system.switch_cpus_1.commit.loads            30171801                       # Number of loads committed
system.switch_cpus_1.commit.membars               530                       # Number of memory barriers committed
system.switch_cpus_1.commit.branches         16841234                       # Number of branches committed
system.switch_cpus_1.commit.fp_insts        121009933                       # Number of committed floating point instructions.
system.switch_cpus_1.commit.int_insts       111742899                       # Number of committed integer instructions.
system.switch_cpus_1.commit.function_calls      1810278                       # Number of function calls committed.
system.switch_cpus_1.commit.op_class_0::No_OpClass      5587774      2.72%      2.72% # Class of committed instruction
system.switch_cpus_1.commit.op_class_0::IntAlu     66796729     32.49%     35.21% # Class of committed instruction
system.switch_cpus_1.commit.op_class_0::IntMult       802505      0.39%     35.60% # Class of committed instruction
system.switch_cpus_1.commit.op_class_0::IntDiv            0      0.00%     35.60% # Class of committed instruction
system.switch_cpus_1.commit.op_class_0::FloatAdd     57123504     27.79%     63.38% # Class of committed instruction
system.switch_cpus_1.commit.op_class_0::FloatCmp      4994353      2.43%     65.81% # Class of committed instruction
system.switch_cpus_1.commit.op_class_0::FloatCvt      3095320      1.51%     67.32% # Class of committed instruction
system.switch_cpus_1.commit.op_class_0::FloatMult     24208317     11.78%     79.09% # Class of committed instruction
system.switch_cpus_1.commit.op_class_0::FloatMultAcc            0      0.00%     79.09% # Class of committed instruction
system.switch_cpus_1.commit.op_class_0::FloatDiv          116      0.00%     79.09% # Class of committed instruction
system.switch_cpus_1.commit.op_class_0::FloatMisc            0      0.00%     79.09% # Class of committed instruction
system.switch_cpus_1.commit.op_class_0::FloatSqrt           41      0.00%     79.09% # Class of committed instruction
system.switch_cpus_1.commit.op_class_0::SimdAdd            0      0.00%     79.09% # Class of committed instruction
system.switch_cpus_1.commit.op_class_0::SimdAddAcc            0      0.00%     79.09% # Class of committed instruction
system.switch_cpus_1.commit.op_class_0::SimdAlu            0      0.00%     79.09% # Class of committed instruction
system.switch_cpus_1.commit.op_class_0::SimdCmp            0      0.00%     79.09% # Class of committed instruction
system.switch_cpus_1.commit.op_class_0::SimdCvt            0      0.00%     79.09% # Class of committed instruction
system.switch_cpus_1.commit.op_class_0::SimdMisc            0      0.00%     79.09% # Class of committed instruction
system.switch_cpus_1.commit.op_class_0::SimdMult            0      0.00%     79.09% # Class of committed instruction
system.switch_cpus_1.commit.op_class_0::SimdMultAcc            0      0.00%     79.09% # Class of committed instruction
system.switch_cpus_1.commit.op_class_0::SimdShift            0      0.00%     79.09% # Class of committed instruction
system.switch_cpus_1.commit.op_class_0::SimdShiftAcc            0      0.00%     79.09% # Class of committed instruction
system.switch_cpus_1.commit.op_class_0::SimdSqrt            0      0.00%     79.09% # Class of committed instruction
system.switch_cpus_1.commit.op_class_0::SimdFloatAdd            0      0.00%     79.09% # Class of committed instruction
system.switch_cpus_1.commit.op_class_0::SimdFloatAlu            0      0.00%     79.09% # Class of committed instruction
system.switch_cpus_1.commit.op_class_0::SimdFloatCmp            0      0.00%     79.09% # Class of committed instruction
system.switch_cpus_1.commit.op_class_0::SimdFloatCvt            0      0.00%     79.09% # Class of committed instruction
system.switch_cpus_1.commit.op_class_0::SimdFloatDiv            0      0.00%     79.09% # Class of committed instruction
system.switch_cpus_1.commit.op_class_0::SimdFloatMisc            0      0.00%     79.09% # Class of committed instruction
system.switch_cpus_1.commit.op_class_0::SimdFloatMult            0      0.00%     79.09% # Class of committed instruction
system.switch_cpus_1.commit.op_class_0::SimdFloatMultAcc            0      0.00%     79.09% # Class of committed instruction
system.switch_cpus_1.commit.op_class_0::SimdFloatSqrt            0      0.00%     79.09% # Class of committed instruction
system.switch_cpus_1.commit.op_class_0::MemRead      6947129      3.38%     82.47% # Class of committed instruction
system.switch_cpus_1.commit.op_class_0::MemWrite      4443708      2.16%     84.64% # Class of committed instruction
system.switch_cpus_1.commit.op_class_0::FloatMemRead     23225202     11.30%     95.93% # Class of committed instruction
system.switch_cpus_1.commit.op_class_0::FloatMemWrite      8363080      4.07%    100.00% # Class of committed instruction
system.switch_cpus_1.commit.op_class_0::IprAccess            0      0.00%    100.00% # Class of committed instruction
system.switch_cpus_1.commit.op_class_0::InstPrefetch            0      0.00%    100.00% # Class of committed instruction
system.switch_cpus_1.commit.op_class_0::total    205587778                       # Class of committed instruction
system.switch_cpus_1.commit.bw_lim_events     16642640                       # number cycles where commit BW limit reached
system.switch_cpus_1.rob.rob_reads          330421012                       # The number of ROB reads
system.switch_cpus_1.rob.rob_writes         446518872                       # The number of ROB writes
system.switch_cpus_1.timesIdled                  1537                       # Number of times that the entire CPU went into an idle state and unscheduled itself
system.switch_cpus_1.idleCycles                203858                       # Total number of cycles that the CPU has spent unscheduled due to idling
system.switch_cpus_1.committedInsts         200000004                       # Number of Instructions Simulated
system.switch_cpus_1.committedOps           200000004                       # Number of Ops (including micro ops) Simulated
system.switch_cpus_1.cpi                     0.637004                       # CPI: Cycles Per Instruction
system.switch_cpus_1.cpi_total               0.637004                       # CPI: Total CPI of All Threads
system.switch_cpus_1.ipc                     1.569849                       # IPC: Instructions Per Cycle
system.switch_cpus_1.ipc_total               1.569849                       # IPC: Total IPC of All Threads
system.switch_cpus_1.int_regfile_reads      143692360                       # number of integer regfile reads
system.switch_cpus_1.int_regfile_writes      69424120                       # number of integer regfile writes
system.switch_cpus_1.fp_regfile_reads       186914035                       # number of floating regfile reads
system.switch_cpus_1.fp_regfile_writes      111269611                       # number of floating regfile writes
system.switch_cpus_1.misc_regfile_reads      56347315                       # number of misc regfile reads
system.switch_cpus_1.misc_regfile_writes         1060                       # number of misc regfile writes
system.tol3bus.snoop_filter.tot_requests      6318609                       # Total number of requests made to the snoop filter.
system.tol3bus.snoop_filter.hit_single_requests      3157085                       # Number of requests hitting in the snoop filter with a single holder of the requested data.
system.tol3bus.snoop_filter.hit_multi_requests            0                       # Number of requests hitting in the snoop filter with multiple (>1) holders of the requested data.
system.tol3bus.snoop_filter.tot_snoops            285                       # Total number of snoops made to the snoop filter.
system.tol3bus.snoop_filter.hit_single_snoops          285                       # Number of snoops hitting in the snoop filter with a single holder of the requested data.
system.tol3bus.snoop_filter.hit_multi_snoops            0                       # Number of snoops hitting in the snoop filter with multiple (>1) holders of the requested data.
system.tol3bus.pwrStateResidencyTicks::UNDEFINED 310860410874876                       # Cumulative time (in ticks) in various power states
system.tol3bus.trans_dist::ReadResp           2177108                       # Transaction distribution
system.tol3bus.trans_dist::WritebackDirty      2354941                       # Transaction distribution
system.tol3bus.trans_dist::CleanEvict          828361                       # Transaction distribution
system.tol3bus.trans_dist::ReadExReq           984416                       # Transaction distribution
system.tol3bus.trans_dist::ReadExResp          984416                       # Transaction distribution
system.tol3bus.trans_dist::ReadSharedReq      2177108                       # Transaction distribution
system.tol3bus.pkt_count_system.cpu.l2.mem_side::system.l3.cpu_side      9480133                       # Packet count per connected master and slave (bytes)
system.tol3bus.pkt_size_system.cpu.l2.mem_side::system.l3.cpu_side    352729856                       # Cumulative packet size per connected master and slave (bytes)
system.tol3bus.snoops                           26217                       # Total snoops (count)
system.tol3bus.snoopTraffic                    323904                       # Total snoop traffic (bytes)
system.tol3bus.snoop_fanout::samples          3187741                       # Request fanout histogram
system.tol3bus.snoop_fanout::mean            0.000089                       # Request fanout histogram
system.tol3bus.snoop_fanout::stdev           0.009455                       # Request fanout histogram
system.tol3bus.snoop_fanout::underflows             0      0.00%      0.00% # Request fanout histogram
system.tol3bus.snoop_fanout::0                3187456     99.99%     99.99% # Request fanout histogram
system.tol3bus.snoop_fanout::1                    285      0.01%    100.00% # Request fanout histogram
system.tol3bus.snoop_fanout::overflows              0      0.00%    100.00% # Request fanout histogram
system.tol3bus.snoop_fanout::min_value              0                       # Request fanout histogram
system.tol3bus.snoop_fanout::max_value              1                       # Request fanout histogram
system.tol3bus.snoop_fanout::total            3187741                       # Request fanout histogram
system.tol3bus.reqLayer0.occupancy         2886606837                       # Layer occupancy (ticks)
system.tol3bus.reqLayer0.utilization              0.3                       # Layer utilization (%)
system.tol3bus.respLayer0.occupancy        2105574984                       # Layer occupancy (ticks)
system.tol3bus.respLayer0.utilization             0.2                       # Layer utilization (%)

---------- End Simulation Statistics   ----------
