
---------- Begin Simulation Statistics ----------
sim_seconds                                  1.812018                       # Number of seconds simulated
sim_ticks                                1812017602566                       # Number of ticks simulated
final_tick                               734764458156552                       # Number of ticks from beginning of simulation (restored from checkpoints and never reset)
sim_freq                                 1000000000000                       # Frequency of simulated ticks
host_inst_rate                                 404033                       # Simulator instruction rate (inst/s)
host_op_rate                                   404033                       # Simulator op (including micro ops) rate (op/s)
host_tick_rate                              610095188                       # Simulator tick rate (ticks/s)
host_mem_usage                                2391116                       # Number of bytes of host memory used
host_seconds                                  2970.06                       # Real time elapsed on the host
sim_insts                                  1200000012                       # Number of instructions simulated
sim_ops                                    1200000012                       # Number of ops (including micro ops) simulated
system.voltage_domain.voltage                       1                       # Voltage in Volts
system.clk_domain.clock                          1000                       # Clock period in ticks
system.mem_ctrls0.pwrStateResidencyTicks::UNDEFINED 734764458156552                       # Cumulative time (in ticks) in various power states
system.mem_ctrls0.bytes_read::cpu.inst            128                       # Number of bytes read from this memory
system.mem_ctrls0.bytes_read::cpu.data            128                       # Number of bytes read from this memory
system.mem_ctrls0.bytes_read::switch_cpus.inst       196992                       # Number of bytes read from this memory
system.mem_ctrls0.bytes_read::switch_cpus.data     61707648                       # Number of bytes read from this memory
system.mem_ctrls0.bytes_read::switch_cpus_1.inst        45632                       # Number of bytes read from this memory
system.mem_ctrls0.bytes_read::switch_cpus_1.data     17383168                       # Number of bytes read from this memory
system.mem_ctrls0.bytes_read::total          79333696                       # Number of bytes read from this memory
system.mem_ctrls0.bytes_inst_read::cpu.inst          128                       # Number of instructions bytes read from this memory
system.mem_ctrls0.bytes_inst_read::switch_cpus.inst       196992                       # Number of instructions bytes read from this memory
system.mem_ctrls0.bytes_inst_read::switch_cpus_1.inst        45632                       # Number of instructions bytes read from this memory
system.mem_ctrls0.bytes_inst_read::total       242752                       # Number of instructions bytes read from this memory
system.mem_ctrls0.bytes_written::writebacks      2957376                       # Number of bytes written to this memory
system.mem_ctrls0.bytes_written::total        2957376                       # Number of bytes written to this memory
system.mem_ctrls0.num_reads::cpu.inst               2                       # Number of read requests responded to by this memory
system.mem_ctrls0.num_reads::cpu.data               2                       # Number of read requests responded to by this memory
system.mem_ctrls0.num_reads::switch_cpus.inst         3078                       # Number of read requests responded to by this memory
system.mem_ctrls0.num_reads::switch_cpus.data       964182                       # Number of read requests responded to by this memory
system.mem_ctrls0.num_reads::switch_cpus_1.inst          713                       # Number of read requests responded to by this memory
system.mem_ctrls0.num_reads::switch_cpus_1.data       271612                       # Number of read requests responded to by this memory
system.mem_ctrls0.num_reads::total            1239589                       # Number of read requests responded to by this memory
system.mem_ctrls0.num_writes::writebacks        46209                       # Number of write requests responded to by this memory
system.mem_ctrls0.num_writes::total             46209                       # Number of write requests responded to by this memory
system.mem_ctrls0.bw_read::cpu.inst                71                       # Total read bandwidth from this memory (bytes/s)
system.mem_ctrls0.bw_read::cpu.data                71                       # Total read bandwidth from this memory (bytes/s)
system.mem_ctrls0.bw_read::switch_cpus.inst       108714                       # Total read bandwidth from this memory (bytes/s)
system.mem_ctrls0.bw_read::switch_cpus.data     34054663                       # Total read bandwidth from this memory (bytes/s)
system.mem_ctrls0.bw_read::switch_cpus_1.inst        25183                       # Total read bandwidth from this memory (bytes/s)
system.mem_ctrls0.bw_read::switch_cpus_1.data      9593267                       # Total read bandwidth from this memory (bytes/s)
system.mem_ctrls0.bw_read::total             43781968                       # Total read bandwidth from this memory (bytes/s)
system.mem_ctrls0.bw_inst_read::cpu.inst           71                       # Instruction read bandwidth from this memory (bytes/s)
system.mem_ctrls0.bw_inst_read::switch_cpus.inst       108714                       # Instruction read bandwidth from this memory (bytes/s)
system.mem_ctrls0.bw_inst_read::switch_cpus_1.inst        25183                       # Instruction read bandwidth from this memory (bytes/s)
system.mem_ctrls0.bw_inst_read::total          133968                       # Instruction read bandwidth from this memory (bytes/s)
system.mem_ctrls0.bw_write::writebacks        1632090                       # Write bandwidth from this memory (bytes/s)
system.mem_ctrls0.bw_write::total             1632090                       # Write bandwidth from this memory (bytes/s)
system.mem_ctrls0.bw_total::writebacks        1632090                       # Total bandwidth to/from this memory (bytes/s)
system.mem_ctrls0.bw_total::cpu.inst               71                       # Total bandwidth to/from this memory (bytes/s)
system.mem_ctrls0.bw_total::cpu.data               71                       # Total bandwidth to/from this memory (bytes/s)
system.mem_ctrls0.bw_total::switch_cpus.inst       108714                       # Total bandwidth to/from this memory (bytes/s)
system.mem_ctrls0.bw_total::switch_cpus.data     34054663                       # Total bandwidth to/from this memory (bytes/s)
system.mem_ctrls0.bw_total::switch_cpus_1.inst        25183                       # Total bandwidth to/from this memory (bytes/s)
system.mem_ctrls0.bw_total::switch_cpus_1.data      9593267                       # Total bandwidth to/from this memory (bytes/s)
system.mem_ctrls0.bw_total::total            45414058                       # Total bandwidth to/from this memory (bytes/s)
system.mem_ctrls0.readReqs                    1239589                       # Number of read requests accepted
system.mem_ctrls0.writeReqs                     46209                       # Number of write requests accepted
system.mem_ctrls0.readBursts                  1239589                       # Number of DRAM read bursts, including those serviced by the write queue
system.mem_ctrls0.writeBursts                   46209                       # Number of DRAM write bursts, including those merged in the write queue
system.mem_ctrls0.bytesReadDRAM              79012928                       # Total number of bytes read from DRAM
system.mem_ctrls0.bytesReadWrQ                 320768                       # Total number of bytes read from write queue
system.mem_ctrls0.bytesWritten                2945472                       # Total number of bytes written to DRAM
system.mem_ctrls0.bytesReadSys               79333696                       # Total read bytes from the system interface side
system.mem_ctrls0.bytesWrittenSys             2957376                       # Total written bytes from the system interface side
system.mem_ctrls0.servicedByWrQ                  5012                       # Number of DRAM read bursts serviced by the write queue
system.mem_ctrls0.mergedWrBursts                  164                       # Number of DRAM write bursts merged with an existing one
system.mem_ctrls0.neitherReadNorWriteReqs            0                       # Number of requests that are neither read nor write
system.mem_ctrls0.perBankRdBursts::0           104215                       # Per bank write bursts
system.mem_ctrls0.perBankRdBursts::1           107773                       # Per bank write bursts
system.mem_ctrls0.perBankRdBursts::2            80637                       # Per bank write bursts
system.mem_ctrls0.perBankRdBursts::3            54227                       # Per bank write bursts
system.mem_ctrls0.perBankRdBursts::4            62256                       # Per bank write bursts
system.mem_ctrls0.perBankRdBursts::5            61192                       # Per bank write bursts
system.mem_ctrls0.perBankRdBursts::6            64481                       # Per bank write bursts
system.mem_ctrls0.perBankRdBursts::7           111337                       # Per bank write bursts
system.mem_ctrls0.perBankRdBursts::8            95548                       # Per bank write bursts
system.mem_ctrls0.perBankRdBursts::9            86297                       # Per bank write bursts
system.mem_ctrls0.perBankRdBursts::10           65950                       # Per bank write bursts
system.mem_ctrls0.perBankRdBursts::11           46088                       # Per bank write bursts
system.mem_ctrls0.perBankRdBursts::12           62049                       # Per bank write bursts
system.mem_ctrls0.perBankRdBursts::13           62805                       # Per bank write bursts
system.mem_ctrls0.perBankRdBursts::14           63944                       # Per bank write bursts
system.mem_ctrls0.perBankRdBursts::15          105778                       # Per bank write bursts
system.mem_ctrls0.perBankWrBursts::0             2087                       # Per bank write bursts
system.mem_ctrls0.perBankWrBursts::1             2908                       # Per bank write bursts
system.mem_ctrls0.perBankWrBursts::2             5656                       # Per bank write bursts
system.mem_ctrls0.perBankWrBursts::3             3838                       # Per bank write bursts
system.mem_ctrls0.perBankWrBursts::4             2366                       # Per bank write bursts
system.mem_ctrls0.perBankWrBursts::5             2575                       # Per bank write bursts
system.mem_ctrls0.perBankWrBursts::6             1118                       # Per bank write bursts
system.mem_ctrls0.perBankWrBursts::7             1056                       # Per bank write bursts
system.mem_ctrls0.perBankWrBursts::8             1153                       # Per bank write bursts
system.mem_ctrls0.perBankWrBursts::9             2142                       # Per bank write bursts
system.mem_ctrls0.perBankWrBursts::10            4445                       # Per bank write bursts
system.mem_ctrls0.perBankWrBursts::11            3509                       # Per bank write bursts
system.mem_ctrls0.perBankWrBursts::12            4800                       # Per bank write bursts
system.mem_ctrls0.perBankWrBursts::13            4030                       # Per bank write bursts
system.mem_ctrls0.perBankWrBursts::14            2348                       # Per bank write bursts
system.mem_ctrls0.perBankWrBursts::15            1992                       # Per bank write bursts
system.mem_ctrls0.numRdRetry                        0                       # Number of times read queue was full causing retry
system.mem_ctrls0.numWrRetry                        0                       # Number of times write queue was full causing retry
system.mem_ctrls0.totGap                 1812008234029                       # Total gap between requests
system.mem_ctrls0.readPktSize::0                    0                       # Read request sizes (log2)
system.mem_ctrls0.readPktSize::1                    0                       # Read request sizes (log2)
system.mem_ctrls0.readPktSize::2                    0                       # Read request sizes (log2)
system.mem_ctrls0.readPktSize::3                    0                       # Read request sizes (log2)
system.mem_ctrls0.readPktSize::4                    0                       # Read request sizes (log2)
system.mem_ctrls0.readPktSize::5                    0                       # Read request sizes (log2)
system.mem_ctrls0.readPktSize::6              1239589                       # Read request sizes (log2)
system.mem_ctrls0.writePktSize::0                   0                       # Write request sizes (log2)
system.mem_ctrls0.writePktSize::1                   0                       # Write request sizes (log2)
system.mem_ctrls0.writePktSize::2                   0                       # Write request sizes (log2)
system.mem_ctrls0.writePktSize::3                   0                       # Write request sizes (log2)
system.mem_ctrls0.writePktSize::4                   0                       # Write request sizes (log2)
system.mem_ctrls0.writePktSize::5                   0                       # Write request sizes (log2)
system.mem_ctrls0.writePktSize::6               46209                       # Write request sizes (log2)
system.mem_ctrls0.rdQLenPdf::0                1192418                       # What read queue length does an incoming req see
system.mem_ctrls0.rdQLenPdf::1                  40208                       # What read queue length does an incoming req see
system.mem_ctrls0.rdQLenPdf::2                   1860                       # What read queue length does an incoming req see
system.mem_ctrls0.rdQLenPdf::3                     91                       # What read queue length does an incoming req see
system.mem_ctrls0.rdQLenPdf::4                      0                       # What read queue length does an incoming req see
system.mem_ctrls0.rdQLenPdf::5                      0                       # What read queue length does an incoming req see
system.mem_ctrls0.rdQLenPdf::6                      0                       # What read queue length does an incoming req see
system.mem_ctrls0.rdQLenPdf::7                      0                       # What read queue length does an incoming req see
system.mem_ctrls0.rdQLenPdf::8                      0                       # What read queue length does an incoming req see
system.mem_ctrls0.rdQLenPdf::9                      0                       # What read queue length does an incoming req see
system.mem_ctrls0.rdQLenPdf::10                     0                       # What read queue length does an incoming req see
system.mem_ctrls0.rdQLenPdf::11                     0                       # What read queue length does an incoming req see
system.mem_ctrls0.rdQLenPdf::12                     0                       # What read queue length does an incoming req see
system.mem_ctrls0.rdQLenPdf::13                     0                       # What read queue length does an incoming req see
system.mem_ctrls0.rdQLenPdf::14                     0                       # What read queue length does an incoming req see
system.mem_ctrls0.rdQLenPdf::15                     0                       # What read queue length does an incoming req see
system.mem_ctrls0.rdQLenPdf::16                     0                       # What read queue length does an incoming req see
system.mem_ctrls0.rdQLenPdf::17                     0                       # What read queue length does an incoming req see
system.mem_ctrls0.rdQLenPdf::18                     0                       # What read queue length does an incoming req see
system.mem_ctrls0.rdQLenPdf::19                     0                       # What read queue length does an incoming req see
system.mem_ctrls0.rdQLenPdf::20                     0                       # What read queue length does an incoming req see
system.mem_ctrls0.rdQLenPdf::21                     0                       # What read queue length does an incoming req see
system.mem_ctrls0.rdQLenPdf::22                     0                       # What read queue length does an incoming req see
system.mem_ctrls0.rdQLenPdf::23                     0                       # What read queue length does an incoming req see
system.mem_ctrls0.rdQLenPdf::24                     0                       # What read queue length does an incoming req see
system.mem_ctrls0.rdQLenPdf::25                     0                       # What read queue length does an incoming req see
system.mem_ctrls0.rdQLenPdf::26                     0                       # What read queue length does an incoming req see
system.mem_ctrls0.rdQLenPdf::27                     0                       # What read queue length does an incoming req see
system.mem_ctrls0.rdQLenPdf::28                     0                       # What read queue length does an incoming req see
system.mem_ctrls0.rdQLenPdf::29                     0                       # What read queue length does an incoming req see
system.mem_ctrls0.rdQLenPdf::30                     0                       # What read queue length does an incoming req see
system.mem_ctrls0.rdQLenPdf::31                     0                       # What read queue length does an incoming req see
system.mem_ctrls0.wrQLenPdf::0                      2                       # What write queue length does an incoming req see
system.mem_ctrls0.wrQLenPdf::1                      2                       # What write queue length does an incoming req see
system.mem_ctrls0.wrQLenPdf::2                      2                       # What write queue length does an incoming req see
system.mem_ctrls0.wrQLenPdf::3                      2                       # What write queue length does an incoming req see
system.mem_ctrls0.wrQLenPdf::4                      2                       # What write queue length does an incoming req see
system.mem_ctrls0.wrQLenPdf::5                      2                       # What write queue length does an incoming req see
system.mem_ctrls0.wrQLenPdf::6                      2                       # What write queue length does an incoming req see
system.mem_ctrls0.wrQLenPdf::7                      2                       # What write queue length does an incoming req see
system.mem_ctrls0.wrQLenPdf::8                      2                       # What write queue length does an incoming req see
system.mem_ctrls0.wrQLenPdf::9                      2                       # What write queue length does an incoming req see
system.mem_ctrls0.wrQLenPdf::10                     2                       # What write queue length does an incoming req see
system.mem_ctrls0.wrQLenPdf::11                     2                       # What write queue length does an incoming req see
system.mem_ctrls0.wrQLenPdf::12                     2                       # What write queue length does an incoming req see
system.mem_ctrls0.wrQLenPdf::13                     2                       # What write queue length does an incoming req see
system.mem_ctrls0.wrQLenPdf::14                     2                       # What write queue length does an incoming req see
system.mem_ctrls0.wrQLenPdf::15                  2269                       # What write queue length does an incoming req see
system.mem_ctrls0.wrQLenPdf::16                  2291                       # What write queue length does an incoming req see
system.mem_ctrls0.wrQLenPdf::17                  2584                       # What write queue length does an incoming req see
system.mem_ctrls0.wrQLenPdf::18                  2590                       # What write queue length does an incoming req see
system.mem_ctrls0.wrQLenPdf::19                  2592                       # What write queue length does an incoming req see
system.mem_ctrls0.wrQLenPdf::20                  2596                       # What write queue length does an incoming req see
system.mem_ctrls0.wrQLenPdf::21                  2594                       # What write queue length does an incoming req see
system.mem_ctrls0.wrQLenPdf::22                  2594                       # What write queue length does an incoming req see
system.mem_ctrls0.wrQLenPdf::23                  2592                       # What write queue length does an incoming req see
system.mem_ctrls0.wrQLenPdf::24                  2591                       # What write queue length does an incoming req see
system.mem_ctrls0.wrQLenPdf::25                  2590                       # What write queue length does an incoming req see
system.mem_ctrls0.wrQLenPdf::26                  2590                       # What write queue length does an incoming req see
system.mem_ctrls0.wrQLenPdf::27                  2589                       # What write queue length does an incoming req see
system.mem_ctrls0.wrQLenPdf::28                  2593                       # What write queue length does an incoming req see
system.mem_ctrls0.wrQLenPdf::29                  2590                       # What write queue length does an incoming req see
system.mem_ctrls0.wrQLenPdf::30                  2593                       # What write queue length does an incoming req see
system.mem_ctrls0.wrQLenPdf::31                  2588                       # What write queue length does an incoming req see
system.mem_ctrls0.wrQLenPdf::32                  2589                       # What write queue length does an incoming req see
system.mem_ctrls0.wrQLenPdf::33                     0                       # What write queue length does an incoming req see
system.mem_ctrls0.wrQLenPdf::34                     0                       # What write queue length does an incoming req see
system.mem_ctrls0.wrQLenPdf::35                     0                       # What write queue length does an incoming req see
system.mem_ctrls0.wrQLenPdf::36                     0                       # What write queue length does an incoming req see
system.mem_ctrls0.wrQLenPdf::37                     0                       # What write queue length does an incoming req see
system.mem_ctrls0.wrQLenPdf::38                     0                       # What write queue length does an incoming req see
system.mem_ctrls0.wrQLenPdf::39                     0                       # What write queue length does an incoming req see
system.mem_ctrls0.wrQLenPdf::40                     0                       # What write queue length does an incoming req see
system.mem_ctrls0.wrQLenPdf::41                     0                       # What write queue length does an incoming req see
system.mem_ctrls0.wrQLenPdf::42                     0                       # What write queue length does an incoming req see
system.mem_ctrls0.wrQLenPdf::43                     0                       # What write queue length does an incoming req see
system.mem_ctrls0.wrQLenPdf::44                     0                       # What write queue length does an incoming req see
system.mem_ctrls0.wrQLenPdf::45                     0                       # What write queue length does an incoming req see
system.mem_ctrls0.wrQLenPdf::46                     0                       # What write queue length does an incoming req see
system.mem_ctrls0.wrQLenPdf::47                     0                       # What write queue length does an incoming req see
system.mem_ctrls0.wrQLenPdf::48                     0                       # What write queue length does an incoming req see
system.mem_ctrls0.wrQLenPdf::49                     0                       # What write queue length does an incoming req see
system.mem_ctrls0.wrQLenPdf::50                     0                       # What write queue length does an incoming req see
system.mem_ctrls0.wrQLenPdf::51                     0                       # What write queue length does an incoming req see
system.mem_ctrls0.wrQLenPdf::52                     0                       # What write queue length does an incoming req see
system.mem_ctrls0.wrQLenPdf::53                     0                       # What write queue length does an incoming req see
system.mem_ctrls0.wrQLenPdf::54                     0                       # What write queue length does an incoming req see
system.mem_ctrls0.wrQLenPdf::55                     0                       # What write queue length does an incoming req see
system.mem_ctrls0.wrQLenPdf::56                     0                       # What write queue length does an incoming req see
system.mem_ctrls0.wrQLenPdf::57                     0                       # What write queue length does an incoming req see
system.mem_ctrls0.wrQLenPdf::58                     0                       # What write queue length does an incoming req see
system.mem_ctrls0.wrQLenPdf::59                     0                       # What write queue length does an incoming req see
system.mem_ctrls0.wrQLenPdf::60                     0                       # What write queue length does an incoming req see
system.mem_ctrls0.wrQLenPdf::61                     0                       # What write queue length does an incoming req see
system.mem_ctrls0.wrQLenPdf::62                     0                       # What write queue length does an incoming req see
system.mem_ctrls0.wrQLenPdf::63                     0                       # What write queue length does an incoming req see
system.mem_ctrls0.bytesPerActivate::samples       494677                       # Bytes accessed per row activation
system.mem_ctrls0.bytesPerActivate::mean   165.680636                       # Bytes accessed per row activation
system.mem_ctrls0.bytesPerActivate::gmean   123.681344                       # Bytes accessed per row activation
system.mem_ctrls0.bytesPerActivate::stdev   149.729480                       # Bytes accessed per row activation
system.mem_ctrls0.bytesPerActivate::0-127       233458     47.19%     47.19% # Bytes accessed per row activation
system.mem_ctrls0.bytesPerActivate::128-255       139769     28.25%     75.45% # Bytes accessed per row activation
system.mem_ctrls0.bytesPerActivate::256-383        71215     14.40%     89.84% # Bytes accessed per row activation
system.mem_ctrls0.bytesPerActivate::384-511        32604      6.59%     96.44% # Bytes accessed per row activation
system.mem_ctrls0.bytesPerActivate::512-639         7740      1.56%     98.00% # Bytes accessed per row activation
system.mem_ctrls0.bytesPerActivate::640-767         3466      0.70%     98.70% # Bytes accessed per row activation
system.mem_ctrls0.bytesPerActivate::768-895         2389      0.48%     99.18% # Bytes accessed per row activation
system.mem_ctrls0.bytesPerActivate::896-1023         1832      0.37%     99.55% # Bytes accessed per row activation
system.mem_ctrls0.bytesPerActivate::1024-1151         2204      0.45%    100.00% # Bytes accessed per row activation
system.mem_ctrls0.bytesPerActivate::total       494677                       # Bytes accessed per row activation
system.mem_ctrls0.rdPerTurnAround::samples         2589                       # Reads before turning the bus around for writes
system.mem_ctrls0.rdPerTurnAround::mean    476.815759                       # Reads before turning the bus around for writes
system.mem_ctrls0.rdPerTurnAround::gmean   262.366147                       # Reads before turning the bus around for writes
system.mem_ctrls0.rdPerTurnAround::stdev   734.166385                       # Reads before turning the bus around for writes
system.mem_ctrls0.rdPerTurnAround::0-1023         2307     89.11%     89.11% # Reads before turning the bus around for writes
system.mem_ctrls0.rdPerTurnAround::1024-2047          260     10.04%     99.15% # Reads before turning the bus around for writes
system.mem_ctrls0.rdPerTurnAround::2048-3071           18      0.70%     99.85% # Reads before turning the bus around for writes
system.mem_ctrls0.rdPerTurnAround::3072-4095            3      0.12%     99.96% # Reads before turning the bus around for writes
system.mem_ctrls0.rdPerTurnAround::29696-30719            1      0.04%    100.00% # Reads before turning the bus around for writes
system.mem_ctrls0.rdPerTurnAround::total         2589                       # Reads before turning the bus around for writes
system.mem_ctrls0.wrPerTurnAround::samples         2589                       # Writes before turning the bus around for reads
system.mem_ctrls0.wrPerTurnAround::mean     17.776362                       # Writes before turning the bus around for reads
system.mem_ctrls0.wrPerTurnAround::gmean    17.762450                       # Writes before turning the bus around for reads
system.mem_ctrls0.wrPerTurnAround::stdev     0.695401                       # Writes before turning the bus around for reads
system.mem_ctrls0.wrPerTurnAround::16             302     11.66%     11.66% # Writes before turning the bus around for reads
system.mem_ctrls0.wrPerTurnAround::17              18      0.70%     12.36% # Writes before turning the bus around for reads
system.mem_ctrls0.wrPerTurnAround::18            2237     86.40%     98.76% # Writes before turning the bus around for reads
system.mem_ctrls0.wrPerTurnAround::19              30      1.16%     99.92% # Writes before turning the bus around for reads
system.mem_ctrls0.wrPerTurnAround::20               1      0.04%     99.96% # Writes before turning the bus around for reads
system.mem_ctrls0.wrPerTurnAround::29               1      0.04%    100.00% # Writes before turning the bus around for reads
system.mem_ctrls0.wrPerTurnAround::total         2589                       # Writes before turning the bus around for reads
system.mem_ctrls0.totQLat                 44085307250                       # Total ticks spent queuing
system.mem_ctrls0.totMemAccLat            67233626000                       # Total ticks spent from burst creation until serviced by the DRAM
system.mem_ctrls0.totBusLat                6172885000                       # Total ticks spent in databus transfers
system.mem_ctrls0.avgQLat                    35708.84                       # Average queueing delay per DRAM burst
system.mem_ctrls0.avgBusLat                   5000.00                       # Average bus latency per DRAM burst
system.mem_ctrls0.avgMemAccLat               54458.84                       # Average memory access latency per DRAM burst
system.mem_ctrls0.avgRdBW                       43.60                       # Average DRAM read bandwidth in MiByte/s
system.mem_ctrls0.avgWrBW                        1.63                       # Average achieved write bandwidth in MiByte/s
system.mem_ctrls0.avgRdBWSys                    43.78                       # Average system read bandwidth in MiByte/s
system.mem_ctrls0.avgWrBWSys                     1.63                       # Average system write bandwidth in MiByte/s
system.mem_ctrls0.peakBW                     12800.00                       # Theoretical peak bandwidth in MiByte/s
system.mem_ctrls0.busUtil                        0.35                       # Data bus utilization in percentage
system.mem_ctrls0.busUtilRead                    0.34                       # Data bus utilization in percentage for reads
system.mem_ctrls0.busUtilWrite                   0.01                       # Data bus utilization in percentage for writes
system.mem_ctrls0.avgRdQLen                      1.01                       # Average read queue length when enqueuing
system.mem_ctrls0.avgWrQLen                     24.57                       # Average write queue length when enqueuing
system.mem_ctrls0.readRowHits                  763670                       # Number of row buffer hits during reads
system.mem_ctrls0.writeRowHits                  22253                       # Number of row buffer hits during writes
system.mem_ctrls0.readRowHitRate                61.86                       # Row buffer hit rate for reads
system.mem_ctrls0.writeRowHitRate               48.33                       # Row buffer hit rate for writes
system.mem_ctrls0.avgGap                   1409247.98                       # Average gap between requests
system.mem_ctrls0.pageHitRate                   61.37                       # Row buffer hit rate, read and write combined
system.mem_ctrls0_0.actEnergy              1918289520                       # Energy for activate commands per rank (pJ)
system.mem_ctrls0_0.preEnergy              1019595060                       # Energy for precharge commands per rank (pJ)
system.mem_ctrls0_0.readEnergy             4613282520                       # Energy for read commands per rank (pJ)
system.mem_ctrls0_0.writeEnergy             112772880                       # Energy for write commands per rank (pJ)
system.mem_ctrls0_0.refreshEnergy        112347587040.000031                       # Energy for refresh commands per rank (pJ)
system.mem_ctrls0_0.actBackEnergy         31288375020                       # Energy for active background per rank (pJ)
system.mem_ctrls0_0.preBackEnergy          4461270720                       # Energy for precharge background per rank (pJ)
system.mem_ctrls0_0.actPowerDownEnergy   372161367030                       # Energy for active power-down per rank (pJ)
system.mem_ctrls0_0.prePowerDownEnergy   136303461120                       # Energy for precharge power-down per rank (pJ)
system.mem_ctrls0_0.selfRefreshEnergy    147666738375                       # Energy for self refresh per rank (pJ)
system.mem_ctrls0_0.totalEnergy          811930023915                       # Total energy per rank (pJ)
system.mem_ctrls0_0.averagePower           448.080647                       # Core power per rank (mW)
system.mem_ctrls0_0.totalIdleTime        1731699679444                       # Total Idle time Per DRAM Rank
system.mem_ctrls0_0.memoryStateTime::IDLE   7104392952                       # Time in different power states
system.mem_ctrls0_0.memoryStateTime::REF  47670886000                       # Time in different power states
system.mem_ctrls0_0.memoryStateTime::SREF 560601768066                       # Time in different power states
system.mem_ctrls0_0.memoryStateTime::PRE_PDN 354957208328                       # Time in different power states
system.mem_ctrls0_0.memoryStateTime::ACT  25539178930                       # Time in different power states
system.mem_ctrls0_0.memoryStateTime::ACT_PDN 816144168290                       # Time in different power states
system.mem_ctrls0_1.actEnergy              1613704260                       # Energy for activate commands per rank (pJ)
system.mem_ctrls0_1.preEnergy               857704155                       # Energy for precharge commands per rank (pJ)
system.mem_ctrls0_1.readEnergy             4201597260                       # Energy for read commands per rank (pJ)
system.mem_ctrls0_1.writeEnergy             127467180                       # Energy for write commands per rank (pJ)
system.mem_ctrls0_1.refreshEnergy        104006307600.000031                       # Energy for refresh commands per rank (pJ)
system.mem_ctrls0_1.actBackEnergy         29209302870                       # Energy for active background per rank (pJ)
system.mem_ctrls0_1.preBackEnergy          4135109760                       # Energy for precharge background per rank (pJ)
system.mem_ctrls0_1.actPowerDownEnergy   343685332110                       # Energy for active power-down per rank (pJ)
system.mem_ctrls0_1.prePowerDownEnergy   126000727200                       # Energy for precharge power-down per rank (pJ)
system.mem_ctrls0_1.selfRefreshEnergy    169554494070                       # Energy for self refresh per rank (pJ)
system.mem_ctrls0_1.totalEnergy          783427893015                       # Total energy per rank (pJ)
system.mem_ctrls0_1.averagePower           432.351148                       # Core power per rank (mW)
system.mem_ctrls0_1.totalIdleTime        1737114212977                       # Total Idle time Per DRAM Rank
system.mem_ctrls0_1.memoryStateTime::IDLE   6617767896                       # Time in different power states
system.mem_ctrls0_1.memoryStateTime::REF  44132952000                       # Time in different power states
system.mem_ctrls0_1.memoryStateTime::SREF 655290364785                       # Time in different power states
system.mem_ctrls0_1.memoryStateTime::PRE_PDN 328127524894                       # Time in different power states
system.mem_ctrls0_1.memoryStateTime::ACT  24150960748                       # Time in different power states
system.mem_ctrls0_1.memoryStateTime::ACT_PDN 753698032243                       # Time in different power states
system.mem_ctrls1.pwrStateResidencyTicks::UNDEFINED 734764458156552                       # Cumulative time (in ticks) in various power states
system.mem_ctrls1.bytes_read::cpu.inst             64                       # Number of bytes read from this memory
system.mem_ctrls1.bytes_read::cpu.data            192                       # Number of bytes read from this memory
system.mem_ctrls1.bytes_read::switch_cpus.inst       181696                       # Number of bytes read from this memory
system.mem_ctrls1.bytes_read::switch_cpus.data     62222272                       # Number of bytes read from this memory
system.mem_ctrls1.bytes_read::switch_cpus_1.inst        45184                       # Number of bytes read from this memory
system.mem_ctrls1.bytes_read::switch_cpus_1.data     17338048                       # Number of bytes read from this memory
system.mem_ctrls1.bytes_read::total          79787456                       # Number of bytes read from this memory
system.mem_ctrls1.bytes_inst_read::cpu.inst           64                       # Number of instructions bytes read from this memory
system.mem_ctrls1.bytes_inst_read::switch_cpus.inst       181696                       # Number of instructions bytes read from this memory
system.mem_ctrls1.bytes_inst_read::switch_cpus_1.inst        45184                       # Number of instructions bytes read from this memory
system.mem_ctrls1.bytes_inst_read::total       226944                       # Number of instructions bytes read from this memory
system.mem_ctrls1.bytes_written::writebacks      2910400                       # Number of bytes written to this memory
system.mem_ctrls1.bytes_written::total        2910400                       # Number of bytes written to this memory
system.mem_ctrls1.num_reads::cpu.inst               1                       # Number of read requests responded to by this memory
system.mem_ctrls1.num_reads::cpu.data               3                       # Number of read requests responded to by this memory
system.mem_ctrls1.num_reads::switch_cpus.inst         2839                       # Number of read requests responded to by this memory
system.mem_ctrls1.num_reads::switch_cpus.data       972223                       # Number of read requests responded to by this memory
system.mem_ctrls1.num_reads::switch_cpus_1.inst          706                       # Number of read requests responded to by this memory
system.mem_ctrls1.num_reads::switch_cpus_1.data       270907                       # Number of read requests responded to by this memory
system.mem_ctrls1.num_reads::total            1246679                       # Number of read requests responded to by this memory
system.mem_ctrls1.num_writes::writebacks        45475                       # Number of write requests responded to by this memory
system.mem_ctrls1.num_writes::total             45475                       # Number of write requests responded to by this memory
system.mem_ctrls1.bw_read::cpu.inst                35                       # Total read bandwidth from this memory (bytes/s)
system.mem_ctrls1.bw_read::cpu.data               106                       # Total read bandwidth from this memory (bytes/s)
system.mem_ctrls1.bw_read::switch_cpus.inst       100273                       # Total read bandwidth from this memory (bytes/s)
system.mem_ctrls1.bw_read::switch_cpus.data     34338669                       # Total read bandwidth from this memory (bytes/s)
system.mem_ctrls1.bw_read::switch_cpus_1.inst        24936                       # Total read bandwidth from this memory (bytes/s)
system.mem_ctrls1.bw_read::switch_cpus_1.data      9568366                       # Total read bandwidth from this memory (bytes/s)
system.mem_ctrls1.bw_read::total             44032385                       # Total read bandwidth from this memory (bytes/s)
system.mem_ctrls1.bw_inst_read::cpu.inst           35                       # Instruction read bandwidth from this memory (bytes/s)
system.mem_ctrls1.bw_inst_read::switch_cpus.inst       100273                       # Instruction read bandwidth from this memory (bytes/s)
system.mem_ctrls1.bw_inst_read::switch_cpus_1.inst        24936                       # Instruction read bandwidth from this memory (bytes/s)
system.mem_ctrls1.bw_inst_read::total          125244                       # Instruction read bandwidth from this memory (bytes/s)
system.mem_ctrls1.bw_write::writebacks        1606165                       # Write bandwidth from this memory (bytes/s)
system.mem_ctrls1.bw_write::total             1606165                       # Write bandwidth from this memory (bytes/s)
system.mem_ctrls1.bw_total::writebacks        1606165                       # Total bandwidth to/from this memory (bytes/s)
system.mem_ctrls1.bw_total::cpu.inst               35                       # Total bandwidth to/from this memory (bytes/s)
system.mem_ctrls1.bw_total::cpu.data              106                       # Total bandwidth to/from this memory (bytes/s)
system.mem_ctrls1.bw_total::switch_cpus.inst       100273                       # Total bandwidth to/from this memory (bytes/s)
system.mem_ctrls1.bw_total::switch_cpus.data     34338669                       # Total bandwidth to/from this memory (bytes/s)
system.mem_ctrls1.bw_total::switch_cpus_1.inst        24936                       # Total bandwidth to/from this memory (bytes/s)
system.mem_ctrls1.bw_total::switch_cpus_1.data      9568366                       # Total bandwidth to/from this memory (bytes/s)
system.mem_ctrls1.bw_total::total            45638550                       # Total bandwidth to/from this memory (bytes/s)
system.mem_ctrls1.readReqs                    1246679                       # Number of read requests accepted
system.mem_ctrls1.writeReqs                     45475                       # Number of write requests accepted
system.mem_ctrls1.readBursts                  1246679                       # Number of DRAM read bursts, including those serviced by the write queue
system.mem_ctrls1.writeBursts                   45475                       # Number of DRAM write bursts, including those merged in the write queue
system.mem_ctrls1.bytesReadDRAM              79460800                       # Total number of bytes read from DRAM
system.mem_ctrls1.bytesReadWrQ                 326656                       # Total number of bytes read from write queue
system.mem_ctrls1.bytesWritten                2899136                       # Total number of bytes written to DRAM
system.mem_ctrls1.bytesReadSys               79787456                       # Total read bytes from the system interface side
system.mem_ctrls1.bytesWrittenSys             2910400                       # Total written bytes from the system interface side
system.mem_ctrls1.servicedByWrQ                  5104                       # Number of DRAM read bursts serviced by the write queue
system.mem_ctrls1.mergedWrBursts                  144                       # Number of DRAM write bursts merged with an existing one
system.mem_ctrls1.neitherReadNorWriteReqs            0                       # Number of requests that are neither read nor write
system.mem_ctrls1.perBankRdBursts::0           106514                       # Per bank write bursts
system.mem_ctrls1.perBankRdBursts::1           107959                       # Per bank write bursts
system.mem_ctrls1.perBankRdBursts::2            81774                       # Per bank write bursts
system.mem_ctrls1.perBankRdBursts::3            54253                       # Per bank write bursts
system.mem_ctrls1.perBankRdBursts::4            61954                       # Per bank write bursts
system.mem_ctrls1.perBankRdBursts::5            61236                       # Per bank write bursts
system.mem_ctrls1.perBankRdBursts::6            64438                       # Per bank write bursts
system.mem_ctrls1.perBankRdBursts::7           113028                       # Per bank write bursts
system.mem_ctrls1.perBankRdBursts::8            97135                       # Per bank write bursts
system.mem_ctrls1.perBankRdBursts::9            87206                       # Per bank write bursts
system.mem_ctrls1.perBankRdBursts::10           65786                       # Per bank write bursts
system.mem_ctrls1.perBankRdBursts::11           45616                       # Per bank write bursts
system.mem_ctrls1.perBankRdBursts::12           62616                       # Per bank write bursts
system.mem_ctrls1.perBankRdBursts::13           64203                       # Per bank write bursts
system.mem_ctrls1.perBankRdBursts::14           63772                       # Per bank write bursts
system.mem_ctrls1.perBankRdBursts::15          104085                       # Per bank write bursts
system.mem_ctrls1.perBankWrBursts::0             2002                       # Per bank write bursts
system.mem_ctrls1.perBankWrBursts::1             2929                       # Per bank write bursts
system.mem_ctrls1.perBankWrBursts::2             5386                       # Per bank write bursts
system.mem_ctrls1.perBankWrBursts::3             3616                       # Per bank write bursts
system.mem_ctrls1.perBankWrBursts::4             2173                       # Per bank write bursts
system.mem_ctrls1.perBankWrBursts::5             2585                       # Per bank write bursts
system.mem_ctrls1.perBankWrBursts::6             1093                       # Per bank write bursts
system.mem_ctrls1.perBankWrBursts::7             1050                       # Per bank write bursts
system.mem_ctrls1.perBankWrBursts::8             1055                       # Per bank write bursts
system.mem_ctrls1.perBankWrBursts::9             2255                       # Per bank write bursts
system.mem_ctrls1.perBankWrBursts::10            4500                       # Per bank write bursts
system.mem_ctrls1.perBankWrBursts::11            3434                       # Per bank write bursts
system.mem_ctrls1.perBankWrBursts::12            4687                       # Per bank write bursts
system.mem_ctrls1.perBankWrBursts::13            3992                       # Per bank write bursts
system.mem_ctrls1.perBankWrBursts::14            2385                       # Per bank write bursts
system.mem_ctrls1.perBankWrBursts::15            2157                       # Per bank write bursts
system.mem_ctrls1.numRdRetry                        0                       # Number of times read queue was full causing retry
system.mem_ctrls1.numWrRetry                        0                       # Number of times write queue was full causing retry
system.mem_ctrls1.totGap                 1811987529336                       # Total gap between requests
system.mem_ctrls1.readPktSize::0                    0                       # Read request sizes (log2)
system.mem_ctrls1.readPktSize::1                    0                       # Read request sizes (log2)
system.mem_ctrls1.readPktSize::2                    0                       # Read request sizes (log2)
system.mem_ctrls1.readPktSize::3                    0                       # Read request sizes (log2)
system.mem_ctrls1.readPktSize::4                    0                       # Read request sizes (log2)
system.mem_ctrls1.readPktSize::5                    0                       # Read request sizes (log2)
system.mem_ctrls1.readPktSize::6              1246679                       # Read request sizes (log2)
system.mem_ctrls1.writePktSize::0                   0                       # Write request sizes (log2)
system.mem_ctrls1.writePktSize::1                   0                       # Write request sizes (log2)
system.mem_ctrls1.writePktSize::2                   0                       # Write request sizes (log2)
system.mem_ctrls1.writePktSize::3                   0                       # Write request sizes (log2)
system.mem_ctrls1.writePktSize::4                   0                       # Write request sizes (log2)
system.mem_ctrls1.writePktSize::5                   0                       # Write request sizes (log2)
system.mem_ctrls1.writePktSize::6               45475                       # Write request sizes (log2)
system.mem_ctrls1.rdQLenPdf::0                1199384                       # What read queue length does an incoming req see
system.mem_ctrls1.rdQLenPdf::1                  40284                       # What read queue length does an incoming req see
system.mem_ctrls1.rdQLenPdf::2                   1807                       # What read queue length does an incoming req see
system.mem_ctrls1.rdQLenPdf::3                    100                       # What read queue length does an incoming req see
system.mem_ctrls1.rdQLenPdf::4                      0                       # What read queue length does an incoming req see
system.mem_ctrls1.rdQLenPdf::5                      0                       # What read queue length does an incoming req see
system.mem_ctrls1.rdQLenPdf::6                      0                       # What read queue length does an incoming req see
system.mem_ctrls1.rdQLenPdf::7                      0                       # What read queue length does an incoming req see
system.mem_ctrls1.rdQLenPdf::8                      0                       # What read queue length does an incoming req see
system.mem_ctrls1.rdQLenPdf::9                      0                       # What read queue length does an incoming req see
system.mem_ctrls1.rdQLenPdf::10                     0                       # What read queue length does an incoming req see
system.mem_ctrls1.rdQLenPdf::11                     0                       # What read queue length does an incoming req see
system.mem_ctrls1.rdQLenPdf::12                     0                       # What read queue length does an incoming req see
system.mem_ctrls1.rdQLenPdf::13                     0                       # What read queue length does an incoming req see
system.mem_ctrls1.rdQLenPdf::14                     0                       # What read queue length does an incoming req see
system.mem_ctrls1.rdQLenPdf::15                     0                       # What read queue length does an incoming req see
system.mem_ctrls1.rdQLenPdf::16                     0                       # What read queue length does an incoming req see
system.mem_ctrls1.rdQLenPdf::17                     0                       # What read queue length does an incoming req see
system.mem_ctrls1.rdQLenPdf::18                     0                       # What read queue length does an incoming req see
system.mem_ctrls1.rdQLenPdf::19                     0                       # What read queue length does an incoming req see
system.mem_ctrls1.rdQLenPdf::20                     0                       # What read queue length does an incoming req see
system.mem_ctrls1.rdQLenPdf::21                     0                       # What read queue length does an incoming req see
system.mem_ctrls1.rdQLenPdf::22                     0                       # What read queue length does an incoming req see
system.mem_ctrls1.rdQLenPdf::23                     0                       # What read queue length does an incoming req see
system.mem_ctrls1.rdQLenPdf::24                     0                       # What read queue length does an incoming req see
system.mem_ctrls1.rdQLenPdf::25                     0                       # What read queue length does an incoming req see
system.mem_ctrls1.rdQLenPdf::26                     0                       # What read queue length does an incoming req see
system.mem_ctrls1.rdQLenPdf::27                     0                       # What read queue length does an incoming req see
system.mem_ctrls1.rdQLenPdf::28                     0                       # What read queue length does an incoming req see
system.mem_ctrls1.rdQLenPdf::29                     0                       # What read queue length does an incoming req see
system.mem_ctrls1.rdQLenPdf::30                     0                       # What read queue length does an incoming req see
system.mem_ctrls1.rdQLenPdf::31                     0                       # What read queue length does an incoming req see
system.mem_ctrls1.wrQLenPdf::0                      2                       # What write queue length does an incoming req see
system.mem_ctrls1.wrQLenPdf::1                      2                       # What write queue length does an incoming req see
system.mem_ctrls1.wrQLenPdf::2                      2                       # What write queue length does an incoming req see
system.mem_ctrls1.wrQLenPdf::3                      2                       # What write queue length does an incoming req see
system.mem_ctrls1.wrQLenPdf::4                      2                       # What write queue length does an incoming req see
system.mem_ctrls1.wrQLenPdf::5                      2                       # What write queue length does an incoming req see
system.mem_ctrls1.wrQLenPdf::6                      2                       # What write queue length does an incoming req see
system.mem_ctrls1.wrQLenPdf::7                      2                       # What write queue length does an incoming req see
system.mem_ctrls1.wrQLenPdf::8                      2                       # What write queue length does an incoming req see
system.mem_ctrls1.wrQLenPdf::9                      2                       # What write queue length does an incoming req see
system.mem_ctrls1.wrQLenPdf::10                     2                       # What write queue length does an incoming req see
system.mem_ctrls1.wrQLenPdf::11                     2                       # What write queue length does an incoming req see
system.mem_ctrls1.wrQLenPdf::12                     2                       # What write queue length does an incoming req see
system.mem_ctrls1.wrQLenPdf::13                     2                       # What write queue length does an incoming req see
system.mem_ctrls1.wrQLenPdf::14                     2                       # What write queue length does an incoming req see
system.mem_ctrls1.wrQLenPdf::15                  2263                       # What write queue length does an incoming req see
system.mem_ctrls1.wrQLenPdf::16                  2286                       # What write queue length does an incoming req see
system.mem_ctrls1.wrQLenPdf::17                  2544                       # What write queue length does an incoming req see
system.mem_ctrls1.wrQLenPdf::18                  2548                       # What write queue length does an incoming req see
system.mem_ctrls1.wrQLenPdf::19                  2546                       # What write queue length does an incoming req see
system.mem_ctrls1.wrQLenPdf::20                  2546                       # What write queue length does an incoming req see
system.mem_ctrls1.wrQLenPdf::21                  2550                       # What write queue length does an incoming req see
system.mem_ctrls1.wrQLenPdf::22                  2550                       # What write queue length does an incoming req see
system.mem_ctrls1.wrQLenPdf::23                  2546                       # What write queue length does an incoming req see
system.mem_ctrls1.wrQLenPdf::24                  2547                       # What write queue length does an incoming req see
system.mem_ctrls1.wrQLenPdf::25                  2545                       # What write queue length does an incoming req see
system.mem_ctrls1.wrQLenPdf::26                  2547                       # What write queue length does an incoming req see
system.mem_ctrls1.wrQLenPdf::27                  2547                       # What write queue length does an incoming req see
system.mem_ctrls1.wrQLenPdf::28                  2546                       # What write queue length does an incoming req see
system.mem_ctrls1.wrQLenPdf::29                  2547                       # What write queue length does an incoming req see
system.mem_ctrls1.wrQLenPdf::30                  2552                       # What write queue length does an incoming req see
system.mem_ctrls1.wrQLenPdf::31                  2545                       # What write queue length does an incoming req see
system.mem_ctrls1.wrQLenPdf::32                  2544                       # What write queue length does an incoming req see
system.mem_ctrls1.wrQLenPdf::33                     2                       # What write queue length does an incoming req see
system.mem_ctrls1.wrQLenPdf::34                     0                       # What write queue length does an incoming req see
system.mem_ctrls1.wrQLenPdf::35                     0                       # What write queue length does an incoming req see
system.mem_ctrls1.wrQLenPdf::36                     0                       # What write queue length does an incoming req see
system.mem_ctrls1.wrQLenPdf::37                     0                       # What write queue length does an incoming req see
system.mem_ctrls1.wrQLenPdf::38                     0                       # What write queue length does an incoming req see
system.mem_ctrls1.wrQLenPdf::39                     0                       # What write queue length does an incoming req see
system.mem_ctrls1.wrQLenPdf::40                     0                       # What write queue length does an incoming req see
system.mem_ctrls1.wrQLenPdf::41                     0                       # What write queue length does an incoming req see
system.mem_ctrls1.wrQLenPdf::42                     0                       # What write queue length does an incoming req see
system.mem_ctrls1.wrQLenPdf::43                     0                       # What write queue length does an incoming req see
system.mem_ctrls1.wrQLenPdf::44                     0                       # What write queue length does an incoming req see
system.mem_ctrls1.wrQLenPdf::45                     0                       # What write queue length does an incoming req see
system.mem_ctrls1.wrQLenPdf::46                     0                       # What write queue length does an incoming req see
system.mem_ctrls1.wrQLenPdf::47                     0                       # What write queue length does an incoming req see
system.mem_ctrls1.wrQLenPdf::48                     0                       # What write queue length does an incoming req see
system.mem_ctrls1.wrQLenPdf::49                     0                       # What write queue length does an incoming req see
system.mem_ctrls1.wrQLenPdf::50                     0                       # What write queue length does an incoming req see
system.mem_ctrls1.wrQLenPdf::51                     0                       # What write queue length does an incoming req see
system.mem_ctrls1.wrQLenPdf::52                     0                       # What write queue length does an incoming req see
system.mem_ctrls1.wrQLenPdf::53                     0                       # What write queue length does an incoming req see
system.mem_ctrls1.wrQLenPdf::54                     0                       # What write queue length does an incoming req see
system.mem_ctrls1.wrQLenPdf::55                     0                       # What write queue length does an incoming req see
system.mem_ctrls1.wrQLenPdf::56                     0                       # What write queue length does an incoming req see
system.mem_ctrls1.wrQLenPdf::57                     0                       # What write queue length does an incoming req see
system.mem_ctrls1.wrQLenPdf::58                     0                       # What write queue length does an incoming req see
system.mem_ctrls1.wrQLenPdf::59                     0                       # What write queue length does an incoming req see
system.mem_ctrls1.wrQLenPdf::60                     0                       # What write queue length does an incoming req see
system.mem_ctrls1.wrQLenPdf::61                     0                       # What write queue length does an incoming req see
system.mem_ctrls1.wrQLenPdf::62                     0                       # What write queue length does an incoming req see
system.mem_ctrls1.wrQLenPdf::63                     0                       # What write queue length does an incoming req see
system.mem_ctrls1.bytesPerActivate::samples       494095                       # Bytes accessed per row activation
system.mem_ctrls1.bytesPerActivate::mean   166.688463                       # Bytes accessed per row activation
system.mem_ctrls1.bytesPerActivate::gmean   124.344491                       # Bytes accessed per row activation
system.mem_ctrls1.bytesPerActivate::stdev   150.141910                       # Bytes accessed per row activation
system.mem_ctrls1.bytesPerActivate::0-127       232194     46.99%     46.99% # Bytes accessed per row activation
system.mem_ctrls1.bytesPerActivate::128-255       138679     28.07%     75.06% # Bytes accessed per row activation
system.mem_ctrls1.bytesPerActivate::256-383        72050     14.58%     89.64% # Bytes accessed per row activation
system.mem_ctrls1.bytesPerActivate::384-511        33567      6.79%     96.44% # Bytes accessed per row activation
system.mem_ctrls1.bytesPerActivate::512-639         7832      1.59%     98.02% # Bytes accessed per row activation
system.mem_ctrls1.bytesPerActivate::640-767         3395      0.69%     98.71% # Bytes accessed per row activation
system.mem_ctrls1.bytesPerActivate::768-895         2358      0.48%     99.19% # Bytes accessed per row activation
system.mem_ctrls1.bytesPerActivate::896-1023         1721      0.35%     99.53% # Bytes accessed per row activation
system.mem_ctrls1.bytesPerActivate::1024-1151         2299      0.47%    100.00% # Bytes accessed per row activation
system.mem_ctrls1.bytesPerActivate::total       494095                       # Bytes accessed per row activation
system.mem_ctrls1.rdPerTurnAround::samples         2545                       # Reads before turning the bus around for writes
system.mem_ctrls1.rdPerTurnAround::mean    487.779175                       # Reads before turning the bus around for writes
system.mem_ctrls1.rdPerTurnAround::gmean   267.548555                       # Reads before turning the bus around for writes
system.mem_ctrls1.rdPerTurnAround::stdev   759.256856                       # Reads before turning the bus around for writes
system.mem_ctrls1.rdPerTurnAround::0-1023         2250     88.41%     88.41% # Reads before turning the bus around for writes
system.mem_ctrls1.rdPerTurnAround::1024-2047          260     10.22%     98.62% # Reads before turning the bus around for writes
system.mem_ctrls1.rdPerTurnAround::2048-3071           33      1.30%     99.92% # Reads before turning the bus around for writes
system.mem_ctrls1.rdPerTurnAround::3072-4095            1      0.04%     99.96% # Reads before turning the bus around for writes
system.mem_ctrls1.rdPerTurnAround::29696-30719            1      0.04%    100.00% # Reads before turning the bus around for writes
system.mem_ctrls1.rdPerTurnAround::total         2545                       # Reads before turning the bus around for writes
system.mem_ctrls1.wrPerTurnAround::samples         2545                       # Writes before turning the bus around for reads
system.mem_ctrls1.wrPerTurnAround::mean     17.799214                       # Writes before turning the bus around for reads
system.mem_ctrls1.wrPerTurnAround::gmean    17.787632                       # Writes before turning the bus around for reads
system.mem_ctrls1.wrPerTurnAround::stdev     0.623945                       # Writes before turning the bus around for reads
system.mem_ctrls1.wrPerTurnAround::16             260     10.22%     10.22% # Writes before turning the bus around for reads
system.mem_ctrls1.wrPerTurnAround::17              22      0.86%     11.08% # Writes before turning the bus around for reads
system.mem_ctrls1.wrPerTurnAround::18            2232     87.70%     98.78% # Writes before turning the bus around for reads
system.mem_ctrls1.wrPerTurnAround::19              31      1.22%    100.00% # Writes before turning the bus around for reads
system.mem_ctrls1.wrPerTurnAround::total         2545                       # Writes before turning the bus around for reads
system.mem_ctrls1.totQLat                 44598629438                       # Total ticks spent queuing
system.mem_ctrls1.totMemAccLat            67878160688                       # Total ticks spent from burst creation until serviced by the DRAM
system.mem_ctrls1.totBusLat                6207875000                       # Total ticks spent in databus transfers
system.mem_ctrls1.avgQLat                    35921.01                       # Average queueing delay per DRAM burst
system.mem_ctrls1.avgBusLat                   5000.00                       # Average bus latency per DRAM burst
system.mem_ctrls1.avgMemAccLat               54671.01                       # Average memory access latency per DRAM burst
system.mem_ctrls1.avgRdBW                       43.85                       # Average DRAM read bandwidth in MiByte/s
system.mem_ctrls1.avgWrBW                        1.60                       # Average achieved write bandwidth in MiByte/s
system.mem_ctrls1.avgRdBWSys                    44.03                       # Average system read bandwidth in MiByte/s
system.mem_ctrls1.avgWrBWSys                     1.61                       # Average system write bandwidth in MiByte/s
system.mem_ctrls1.peakBW                     12800.00                       # Theoretical peak bandwidth in MiByte/s
system.mem_ctrls1.busUtil                        0.36                       # Data bus utilization in percentage
system.mem_ctrls1.busUtilRead                    0.34                       # Data bus utilization in percentage for reads
system.mem_ctrls1.busUtilWrite                   0.01                       # Data bus utilization in percentage for writes
system.mem_ctrls1.avgRdQLen                      1.01                       # Average read queue length when enqueuing
system.mem_ctrls1.avgWrQLen                     24.24                       # Average write queue length when enqueuing
system.mem_ctrls1.readRowHits                  770924                       # Number of row buffer hits during reads
system.mem_ctrls1.writeRowHits                  21855                       # Number of row buffer hits during writes
system.mem_ctrls1.readRowHitRate                62.09                       # Row buffer hit rate for reads
system.mem_ctrls1.writeRowHitRate               48.21                       # Row buffer hit rate for writes
system.mem_ctrls1.avgGap                   1402299.98                       # Average gap between requests
system.mem_ctrls1.pageHitRate                   61.60                       # Row buffer hit rate, read and write combined
system.mem_ctrls1_0.actEnergy              1922480700                       # Energy for activate commands per rank (pJ)
system.mem_ctrls1_0.preEnergy              1021822725                       # Energy for precharge commands per rank (pJ)
system.mem_ctrls1_0.readEnergy             4649253840                       # Energy for read commands per rank (pJ)
system.mem_ctrls1_0.writeEnergy             108753480                       # Energy for write commands per rank (pJ)
system.mem_ctrls1_0.refreshEnergy        113456397600.000031                       # Energy for refresh commands per rank (pJ)
system.mem_ctrls1_0.actBackEnergy         31561273920                       # Energy for active background per rank (pJ)
system.mem_ctrls1_0.preBackEnergy          4515482400                       # Energy for precharge background per rank (pJ)
system.mem_ctrls1_0.actPowerDownEnergy   375655384950                       # Energy for active power-down per rank (pJ)
system.mem_ctrls1_0.prePowerDownEnergy   137497243680                       # Energy for precharge power-down per rank (pJ)
system.mem_ctrls1_0.selfRefreshEnergy    145097413425                       # Energy for self refresh per rank (pJ)
system.mem_ctrls1_0.totalEnergy          815525051670                       # Total energy per rank (pJ)
system.mem_ctrls1_0.averagePower           450.064637                       # Core power per rank (mW)
system.mem_ctrls1_0.totalIdleTime        1730943899511                       # Total Idle time Per DRAM Rank
system.mem_ctrls1_0.memoryStateTime::IDLE   7207990746                       # Time in different power states
system.mem_ctrls1_0.memoryStateTime::REF  48141750000                       # Time in different power states
system.mem_ctrls1_0.memoryStateTime::SREF 549085710316                       # Time in different power states
system.mem_ctrls1_0.memoryStateTime::PRE_PDN 358065043914                       # Time in different power states
system.mem_ctrls1_0.memoryStateTime::ACT  25710174069                       # Time in different power states
system.mem_ctrls1_0.memoryStateTime::ACT_PDN 823806933521                       # Time in different power states
system.mem_ctrls1_1.actEnergy              1605357600                       # Energy for activate commands per rank (pJ)
system.mem_ctrls1_1.preEnergy               853267800                       # Energy for precharge commands per rank (pJ)
system.mem_ctrls1_1.readEnergy             4215591660                       # Energy for read commands per rank (pJ)
system.mem_ctrls1_1.writeEnergy             127707300                       # Energy for write commands per rank (pJ)
system.mem_ctrls1_1.refreshEnergy        104344974240.000031                       # Energy for refresh commands per rank (pJ)
system.mem_ctrls1_1.actBackEnergy         29243852280                       # Energy for active background per rank (pJ)
system.mem_ctrls1_1.preBackEnergy          4183980480                       # Energy for precharge background per rank (pJ)
system.mem_ctrls1_1.actPowerDownEnergy   343652092560                       # Energy for active power-down per rank (pJ)
system.mem_ctrls1_1.prePowerDownEnergy   126296484000                       # Energy for precharge power-down per rank (pJ)
system.mem_ctrls1_1.selfRefreshEnergy    169596162570                       # Energy for self refresh per rank (pJ)
system.mem_ctrls1_1.totalEnergy          784153376640                       # Total energy per rank (pJ)
system.mem_ctrls1_1.averagePower           432.751518                       # Core power per rank (mW)
system.mem_ctrls1_1.totalIdleTime        1736880903420                       # Total Idle time Per DRAM Rank
system.mem_ctrls1_1.memoryStateTime::IDLE   6738162440                       # Time in different power states
system.mem_ctrls1_1.memoryStateTime::REF  44278894000                       # Time in different power states
system.mem_ctrls1_1.memoryStateTime::SREF 654394981566                       # Time in different power states
system.mem_ctrls1_1.memoryStateTime::PRE_PDN 328896990967                       # Time in different power states
system.mem_ctrls1_1.memoryStateTime::ACT  24084728946                       # Time in different power states
system.mem_ctrls1_1.memoryStateTime::ACT_PDN 753623844647                       # Time in different power states
system.pwrStateResidencyTicks::UNDEFINED 734764458156552                       # Cumulative time (in ticks) in various power states
system.cpu.branchPred.lookups                       4                       # Number of BP lookups
system.cpu.branchPred.condPredicted                 4                       # Number of conditional branches predicted
system.cpu.branchPred.condIncorrect                 4                       # Number of conditional branches incorrect
system.cpu.branchPred.BTBLookups                    0                       # Number of BTB lookups
system.cpu.branchPred.BTBHits                       0                       # Number of BTB hits
system.cpu.branchPred.BTBCorrect                    0                       # Number of correct BTB predictions (this stat may not work properly.
system.cpu.branchPred.BTBHitPct                   nan                       # BTB Hit Percentage
system.cpu.branchPred.usedRAS                       0                       # Number of times the RAS was used to get a target.
system.cpu.branchPred.RASInCorrect                  0                       # Number of incorrect RAS predictions.
system.cpu.branchPred.indirectLookups               0                       # Number of indirect predictor lookups.
system.cpu.branchPred.indirectHits                  0                       # Number of indirect target hits.
system.cpu.branchPred.indirectMisses                0                       # Number of indirect misses.
system.cpu.branchPredindirectMispredicted            0                       # Number of mispredicted indirect branches.
system.cpu_voltage_domain.voltage                   1                       # Voltage in Volts
system.cpu_clk_domain.clock                       333                       # Clock period in ticks
system.cpu.dtb.fetch_hits                           0                       # ITB hits
system.cpu.dtb.fetch_misses                         0                       # ITB misses
system.cpu.dtb.fetch_acv                            0                       # ITB acv
system.cpu.dtb.fetch_accesses                       0                       # ITB accesses
system.cpu.dtb.read_hits                           36                       # DTB read hits
system.cpu.dtb.read_misses                          0                       # DTB read misses
system.cpu.dtb.read_acv                             0                       # DTB read access violations
system.cpu.dtb.read_accesses                       36                       # DTB read accesses
system.cpu.dtb.write_hits                           0                       # DTB write hits
system.cpu.dtb.write_misses                         0                       # DTB write misses
system.cpu.dtb.write_acv                            0                       # DTB write access violations
system.cpu.dtb.write_accesses                       0                       # DTB write accesses
system.cpu.dtb.data_hits                           36                       # DTB hits
system.cpu.dtb.data_misses                          0                       # DTB misses
system.cpu.dtb.data_acv                             0                       # DTB access violations
system.cpu.dtb.data_accesses                       36                       # DTB accesses
system.cpu.itb.fetch_hits                          13                       # ITB hits
system.cpu.itb.fetch_misses                         0                       # ITB misses
system.cpu.itb.fetch_acv                            0                       # ITB acv
system.cpu.itb.fetch_accesses                      13                       # ITB accesses
system.cpu.itb.read_hits                            0                       # DTB read hits
system.cpu.itb.read_misses                          0                       # DTB read misses
system.cpu.itb.read_acv                             0                       # DTB read access violations
system.cpu.itb.read_accesses                        0                       # DTB read accesses
system.cpu.itb.write_hits                           0                       # DTB write hits
system.cpu.itb.write_misses                         0                       # DTB write misses
system.cpu.itb.write_acv                            0                       # DTB write access violations
system.cpu.itb.write_accesses                       0                       # DTB write accesses
system.cpu.itb.data_hits                            0                       # DTB hits
system.cpu.itb.data_misses                          0                       # DTB misses
system.cpu.itb.data_acv                             0                       # DTB access violations
system.cpu.itb.data_accesses                        0                       # DTB accesses
system.cpu.workload.num_syscalls                   44                       # Number of system calls
system.cpu.pwrStateResidencyTicks::ON    1812017602566                       # Cumulative time (in ticks) in various power states
system.cpu.numCycles                              997                       # number of cpu cycles simulated
system.cpu.numWorkItemsStarted                      0                       # number of work items this cpu started
system.cpu.numWorkItemsCompleted                    0                       # number of work items this cpu completed
system.cpu.fetch.icacheStallCycles                 63                       # Number of cycles fetch is stalled on an Icache miss
system.cpu.fetch.Insts                             96                       # Number of instructions fetch has processed
system.cpu.fetch.Branches                           4                       # Number of branches that fetch encountered
system.cpu.fetch.Cycles                            12                       # Number of cycles fetch has run and was not squashing or blocked
system.cpu.fetch.SquashCycles                      11                       # Number of cycles fetch has spent squashing
system.cpu.fetch.PendingDrainCycles                16                       # Number of cycles fetch has spent waiting on pipes to drain
system.cpu.fetch.CacheLines                        13                       # Number of cache lines fetched
system.cpu.fetch.IcacheSquashes                     5                       # Number of outstanding Icache misses that were squashed
system.cpu.fetch.rateDist::samples                 96                       # Number of instructions fetched each cycle (Total)
system.cpu.fetch.rateDist::mean                     1                       # Number of instructions fetched each cycle (Total)
system.cpu.fetch.rateDist::stdev             2.659640                       # Number of instructions fetched each cycle (Total)
system.cpu.fetch.rateDist::underflows               0      0.00%      0.00% # Number of instructions fetched each cycle (Total)
system.cpu.fetch.rateDist::0                       84     87.50%     87.50% # Number of instructions fetched each cycle (Total)
system.cpu.fetch.rateDist::1                        0      0.00%     87.50% # Number of instructions fetched each cycle (Total)
system.cpu.fetch.rateDist::2                        0      0.00%     87.50% # Number of instructions fetched each cycle (Total)
system.cpu.fetch.rateDist::3                        0      0.00%     87.50% # Number of instructions fetched each cycle (Total)
[...]
system.switch_cpus_1.iq.int_inst_queue_wakeup_accesses    115386679                       # Number of integer instruction queue wakeup accesses
system.switch_cpus_1.iq.fp_inst_queue_reads    210655018                       # Number of floating instruction queue reads
system.switch_cpus_1.iq.fp_inst_queue_writes    113954957                       # Number of floating instruction queue writes
system.switch_cpus_1.iq.fp_inst_queue_wakeup_accesses    101134775                       # Number of floating instruction queue wakeup accesses
system.switch_cpus_1.iq.int_alu_accesses    118978065                       # Number of integer alu accesses
system.switch_cpus_1.iq.fp_alu_accesses     107742292                       # Number of floating point alu accesses
system.switch_cpus_1.iew.lsq.thread0.forwLoads       572239                       # Number of loads that had data forwarded from stores
system.switch_cpus_1.iew.lsq.thread0.invAddrLoads            0                       # Number of loads ignored due to an invalid address
system.switch_cpus_1.iew.lsq.thread0.squashedLoads      6586113                       # Number of loads squashed
system.switch_cpus_1.iew.lsq.thread0.ignoredResponses         8037                       # Number of memory responses ignored because the instruction is squashed
system.switch_cpus_1.iew.lsq.thread0.memOrderViolation         2204                       # Number of memory ordering violations
system.switch_cpus_1.iew.lsq.thread0.squashedStores       675844                       # Number of stores squashed
system.switch_cpus_1.iew.lsq.thread0.invAddrSwpfs            0                       # Number of software prefetches ignored due to an invalid address
system.switch_cpus_1.iew.lsq.thread0.blockedLoads            0                       # Number of blocked loads due to partial load-store forwarding
system.switch_cpus_1.iew.lsq.thread0.rescheduledLoads          154                       # Number of loads that were rescheduled
system.switch_cpus_1.iew.lsq.thread0.cacheBlocked      2037529                       # Number of times an access to memory failed due to the cache being blocked
system.switch_cpus_1.iew.iewIdleCycles              0                       # Number of cycles IEW is idle
system.switch_cpus_1.iew.iewSquashCycles       510955                       # Number of cycles IEW is squashing
system.switch_cpus_1.iew.iewBlockCycles      95210363                       # Number of cycles IEW is blocking
system.switch_cpus_1.iew.iewUnblockCycles     55725524                       # Number of cycles IEW is unblocking
system.switch_cpus_1.iew.iewDispatchedInsts    228310232                       # Number of instructions dispatched to IQ
system.switch_cpus_1.iew.iewDispSquashedInsts       325181                       # Number of squashed instructions skipped by dispatch
system.switch_cpus_1.iew.iewDispLoadInsts     49887210                       # Number of dispatched load instructions
system.switch_cpus_1.iew.iewDispStoreInsts      4058948                       # Number of dispatched store instructions
system.switch_cpus_1.iew.iewDispNonSpecInsts         3532                       # Number of dispatched non-speculative instructions
system.switch_cpus_1.iew.iewIQFullEvents       785178                       # Number of times the IQ has become full, causing a stall
system.switch_cpus_1.iew.iewLSQFullEvents     54415708                       # Number of times the LSQ has become full, causing a stall
system.switch_cpus_1.iew.memOrderViolationEvents         2204                       # Number of memory order violations
system.switch_cpus_1.iew.predictedTakenIncorrect       406864                       # Number of branches that were predicted taken incorrectly
system.switch_cpus_1.iew.predictedNotTakenIncorrect       105318                       # Number of branches that were predicted not taken incorrectly
system.switch_cpus_1.iew.branchMispredicts       512182                       # Number of branch mispredicts detected at execute
system.switch_cpus_1.iew.iewExecutedInsts    219955947                       # Number of executed instructions
system.switch_cpus_1.iew.iewExecLoadInsts     50319157                       # Number of load instructions executed
system.switch_cpus_1.iew.iewExecSquashedInsts      1006589                       # Number of squashed instructions skipped in execute
system.switch_cpus_1.iew.exec_swp                   0                       # number of swp insts executed
system.switch_cpus_1.iew.exec_nop             2133050                       # number of nop insts executed
system.switch_cpus_1.iew.exec_refs           54128241                       # number of memory reference insts executed
system.switch_cpus_1.iew.exec_branches       18043389                       # Number of branches executed
system.switch_cpus_1.iew.exec_stores          3809084                       # Number of stores executed
system.switch_cpus_1.iew.exec_rate           0.650572                       # Inst execution rate
system.switch_cpus_1.iew.wb_sent            217278772                       # cumulative count of insts sent to commit
system.switch_cpus_1.iew.wb_count           216521454                       # cumulative count of insts written-back
system.switch_cpus_1.iew.wb_producers       160302113                       # num instructions producing a value
system.switch_cpus_1.iew.wb_consumers       204519239                       # num instructions consuming a value
system.switch_cpus_1.iew.wb_rate             0.640414                       # insts written-back per cycle
system.switch_cpus_1.iew.wb_fanout           0.783800                       # average fanout of values written-back
system.switch_cpus_1.commit.commitSquashedInsts     25249924                       # The number of squashed insts skipped by commit
system.switch_cpus_1.commit.commitNonSpecStalls         4876                       # The number of times commit has been forced to stall to communicate backwards
system.switch_cpus_1.commit.branchMispredicts       438003                       # The number of times a branch was mispredicted
system.switch_cpus_1.commit.committed_per_cycle::samples    334111136                       # Number of insts commited each cycle
system.switch_cpus_1.commit.committed_per_cycle::mean     0.603654                       # Number of insts commited each cycle
system.switch_cpus_1.commit.committed_per_cycle::stdev     1.953950                       # Number of insts commited each cycle
system.switch_cpus_1.commit.committed_per_cycle::underflows            0      0.00%      0.00% # Number of insts commited each cycle
system.switch_cpus_1.commit.committed_per_cycle::0    296948627     88.88%     88.88% # Number of insts commited each cycle
system.switch_cpus_1.commit.committed_per_cycle::1      6795608      2.03%     90.91% # Number of insts commited each cycle
system.switch_cpus_1.commit.committed_per_cycle::2      3473673      1.04%     91.95% # Number of insts commited each cycle
system.switch_cpus_1.commit.committed_per_cycle::3      1359269      0.41%     92.36% # Number of insts commited each cycle
system.switch_cpus_1.commit.committed_per_cycle::4      1751465      0.52%     92.88% # Number of insts commited each cycle
system.switch_cpus_1.commit.committed_per_cycle::5      1120426      0.34%     93.22% # Number of insts commited each cycle
system.switch_cpus_1.commit.committed_per_cycle::6      4298782      1.29%     94.50% # Number of insts commited each cycle
system.switch_cpus_1.commit.committed_per_cycle::7      1440367      0.43%     94.93% # Number of insts commited each cycle
system.switch_cpus_1.commit.committed_per_cycle::8     16922919      5.07%    100.00% # Number of insts commited each cycle
system.switch_cpus_1.commit.committed_per_cycle::overflows            0      0.00%    100.00% # Number of insts commited each cycle
system.switch_cpus_1.commit.committed_per_cycle::min_value            0                       # Number of insts commited each cycle
system.switch_cpus_1.commit.committed_per_cycle::max_value            8                       # Number of insts commited each cycle
system.switch_cpus_1.commit.committed_per_cycle::total    334111136                       # Number of insts commited each cycle
system.switch_cpus_1.commit.committedInsts    201687364                       # Number of instructions committed
system.switch_cpus_1.commit.committedOps    201687364                       # Number of ops (including micro ops) committed
system.switch_cpus_1.commit.swp_count               0                       # Number of s/w prefetches committed
system.switch_cpus_1.commit.refs             46684198                       # Number of memory references committed
system.switch_cpus_1.commit.loads            43301094                       # Number of loads committed
system.switch_cpus_1.commit.membars              2438                       # Number of memory barriers committed
system.switch_cpus_1.commit.branches         16053531                       # Number of branches committed
system.switch_cpus_1.commit.fp_insts         97819303                       # Number of committed floating point instructions.
system.switch_cpus_1.commit.int_insts       136497010                       # Number of committed integer instructions.
system.switch_cpus_1.commit.function_calls       279259                       # Number of function calls committed.
system.switch_cpus_1.commit.op_class_0::No_OpClass      1687643      0.84%      0.84% # Class of committed instruction
system.switch_cpus_1.commit.op_class_0::IntAlu     89863699     44.56%     45.39% # Class of committed instruction
system.switch_cpus_1.commit.op_class_0::IntMult          759      0.00%     45.39% # Class of committed instruction
system.switch_cpus_1.commit.op_class_0::IntDiv            0      0.00%     45.39% # Class of committed instruction
system.switch_cpus_1.commit.op_class_0::FloatAdd     37891739     18.79%     64.18% # Class of committed instruction
system.switch_cpus_1.commit.op_class_0::FloatCmp       635720      0.32%     64.50% # Class of committed instruction
system.switch_cpus_1.commit.op_class_0::FloatCvt       230023      0.11%     64.61% # Class of committed instruction
system.switch_cpus_1.commit.op_class_0::FloatMult     24664631     12.23%     76.84% # Class of committed instruction
system.switch_cpus_1.commit.op_class_0::FloatMultAcc            0      0.00%     76.84% # Class of committed instruction
system.switch_cpus_1.commit.op_class_0::FloatDiv        26514      0.01%     76.85% # Class of committed instruction
system.switch_cpus_1.commit.op_class_0::FloatMisc            0      0.00%     76.85% # Class of committed instruction
system.switch_cpus_1.commit.op_class_0::FloatSqrt            0      0.00%     76.85% # Class of committed instruction
system.switch_cpus_1.commit.op_class_0::SimdAdd            0      0.00%     76.85% # Class of committed instruction
system.switch_cpus_1.commit.op_class_0::SimdAddAcc            0      0.00%     76.85% # Class of committed instruction
system.switch_cpus_1.commit.op_class_0::SimdAlu            0      0.00%     76.85% # Class of committed instruction
system.switch_cpus_1.commit.op_class_0::SimdCmp            0      0.00%     76.85% # Class of committed instruction
system.switch_cpus_1.commit.op_class_0::SimdCvt            0      0.00%     76.85% # Class of committed instruction
system.switch_cpus_1.commit.op_class_0::SimdMisc            0      0.00%     76.85% # Class of committed instruction
system.switch_cpus_1.commit.op_class_0::SimdMult            0      0.00%     76.85% # Class of committed instruction
system.switch_cpus_1.commit.op_class_0::SimdMultAcc            0      0.00%     76.85% # Class of committed instruction
system.switch_cpus_1.commit.op_class_0::SimdShift            0      0.00%     76.85% # Class of committed instruction
system.switch_cpus_1.commit.op_class_0::SimdShiftAcc            0      0.00%     76.85% # Class of committed instruction
system.switch_cpus_1.commit.op_class_0::SimdSqrt            0      0.00%     76.85% # Class of committed instruction
system.switch_cpus_1.commit.op_class_0::SimdFloatAdd            0      0.00%     76.85% # Class of committed instruction
system.switch_cpus_1.commit.op_class_0::SimdFloatAlu            0      0.00%     76.85% # Class of committed instruction
system.switch_cpus_1.commit.op_class_0::SimdFloatCmp            0      0.00%     76.85% # Class of committed instruction
system.switch_cpus_1.commit.op_class_0::SimdFloatCvt            0      0.00%     76.85% # Class of committed instruction
system.switch_cpus_1.commit.op_class_0::SimdFloatDiv            0      0.00%     76.85% # Class of committed instruction
system.switch_cpus_1.commit.op_class_0::SimdFloatMisc            0      0.00%     76.85% # Class of committed instruction
system.switch_cpus_1.commit.op_class_0::SimdFloatMult            0      0.00%     76.85% # Class of committed instruction
system.switch_cpus_1.commit.op_class_0::SimdFloatMultAcc            0      0.00%     76.85% # Class of committed instruction
system.switch_cpus_1.commit.op_class_0::SimdFloatSqrt            0      0.00%     76.85% # Class of committed instruction
system.switch_cpus_1.commit.op_class_0::MemRead      9751532      4.83%     81.69% # Class of committed instruction
system.switch_cpus_1.commit.op_class_0::MemWrite      2564428      1.27%     82.96% # Class of committed instruction
system.switch_cpus_1.commit.op_class_0::FloatMemRead     33552000     16.64%     99.59% # Class of committed instruction
system.switch_cpus_1.commit.op_class_0::FloatMemWrite       818676      0.41%    100.00% # Class of committed instruction
system.switch_cpus_1.commit.op_class_0::IprAccess            0      0.00%    100.00% # Class of committed instruction
system.switch_cpus_1.commit.op_class_0::InstPrefetch            0      0.00%    100.00% # Class of committed instruction
system.switch_cpus_1.commit.op_class_0::total    201687364                       # Class of committed instruction
system.switch_cpus_1.commit.bw_lim_events     16922919                       # number cycles where commit BW limit reached
system.switch_cpus_1.rob.rob_reads          543201322                       # The number of ROB reads
system.switch_cpus_1.rob.rob_writes         457306112                       # The number of ROB writes
system.switch_cpus_1.timesIdled                  2435                       # Number of times that the entire CPU went into an idle state and unscheduled itself
system.switch_cpus_1.idleCycles                555559                       # Total number of cycles that the CPU has spent unscheduled due to idling
system.switch_cpus_1.committedInsts         200000005                       # Number of Instructions Simulated
system.switch_cpus_1.committedOps           200000005                       # Number of Ops (including micro ops) Simulated
system.switch_cpus_1.cpi                     1.690481                       # CPI: Cycles Per Instruction
system.switch_cpus_1.cpi_total               1.690481                       # CPI: Total CPI of All Threads
system.switch_cpus_1.ipc                     0.591548                       # IPC: Instructions Per Cycle
system.switch_cpus_1.ipc_total               0.591548                       # IPC: Total IPC of All Threads
system.switch_cpus_1.int_regfile_reads      218079359                       # number of integer regfile reads
system.switch_cpus_1.int_regfile_writes      95043586                       # number of integer regfile writes
system.switch_cpus_1.fp_regfile_reads       130331761                       # number of floating regfile reads
system.switch_cpus_1.fp_regfile_writes      100101179                       # number of floating regfile writes
system.switch_cpus_1.misc_regfile_reads        407199                       # number of misc regfile reads
system.switch_cpus_1.misc_regfile_writes         5018                       # number of misc regfile writes
system.tol3bus.snoop_filter.tot_requests     26332154                       # Total number of requests made to the snoop filter.
system.tol3bus.snoop_filter.hit_single_requests     13164736                       # Number of requests hitting in the snoop filter with a single holder of the requested data.
system.tol3bus.snoop_filter.hit_multi_requests            0                       # Number of requests hitting in the snoop filter with multiple (>1) holders of the requested data.
system.tol3bus.snoop_filter.tot_snoops          26863                       # Total number of snoops made to the snoop filter.
system.tol3bus.snoop_filter.hit_single_snoops        26863                       # Number of snoops hitting in the snoop filter with a single holder of the requested data.
system.tol3bus.snoop_filter.hit_multi_snoops            0                       # Number of snoops hitting in the snoop filter with multiple (>1) holders of the requested data.
system.tol3bus.pwrStateResidencyTicks::UNDEFINED 734764458156552                       # Cumulative time (in ticks) in various power states
system.tol3bus.trans_dist::ReadResp          12311840                       # Transaction distribution
system.tol3bus.trans_dist::WritebackDirty      1717081                       # Transaction distribution
system.tol3bus.trans_dist::CleanEvict        13871347                       # Transaction distribution
system.tol3bus.trans_dist::UpgradeReq              44                       # Transaction distribution
system.tol3bus.trans_dist::UpgradeResp             44                       # Transaction distribution
system.tol3bus.trans_dist::ReadExReq           855578                       # Transaction distribution
system.tol3bus.trans_dist::ReadExResp          855578                       # Transaction distribution
system.tol3bus.trans_dist::ReadSharedReq     12311840                       # Transaction distribution
system.tol3bus.pkt_count_system.cpu.l2.mem_side::system.l3.cpu_side     39499616                       # Packet count per connected master and slave (bytes)
system.tol3bus.pkt_size_system.cpu.l2.mem_side::system.l3.cpu_side    946740160                       # Cumulative packet size per connected master and slave (bytes)
system.tol3bus.snoops                         2423736                       # Total snoops (count)
system.tol3bus.snoopTraffic                   5867776                       # Total snoop traffic (bytes)
system.tol3bus.snoop_fanout::samples         15591198                       # Request fanout histogram
system.tol3bus.snoop_fanout::mean            0.001723                       # Request fanout histogram
system.tol3bus.snoop_fanout::stdev           0.041473                       # Request fanout histogram
system.tol3bus.snoop_fanout::underflows             0      0.00%      0.00% # Request fanout histogram
system.tol3bus.snoop_fanout::0               15564335     99.83%     99.83% # Request fanout histogram
system.tol3bus.snoop_fanout::1                  26863      0.17%    100.00% # Request fanout histogram
system.tol3bus.snoop_fanout::overflows              0      0.00%    100.00% # Request fanout histogram
system.tol3bus.snoop_fanout::min_value              0                       # Request fanout histogram
system.tol3bus.snoop_fanout::max_value              1                       # Request fanout histogram
system.tol3bus.snoop_fanout::total           15591198                       # Request fanout histogram
system.tol3bus.reqLayer0.occupancy         9309864483                       # Layer occupancy (ticks)
system.tol3bus.reqLayer0.utilization              0.5                       # Layer utilization (%)
system.tol3bus.respLayer0.occupancy        8769515040                       # Layer occupancy (ticks)
system.tol3bus.respLayer0.utilization             0.5                       # Layer utilization (%)

---------- End Simulation Statistics   ----------
