
---------- Begin Simulation Statistics ----------
sim_seconds                                  2.935696                       # Number of seconds simulated
sim_ticks                                2935695945087                       # Number of ticks simulated
final_tick                               72965668526433                       # Number of ticks from beginning of simulation (restored from checkpoints and never reset)
sim_freq                                 1000000000000                       # Frequency of simulated ticks
host_inst_rate                                 239334                       # Simulator instruction rate (inst/s)
host_op_rate                                   239334                       # Simulator op (including micro ops) rate (op/s)
host_tick_rate                              585511018                       # Simulator tick rate (ticks/s)
host_mem_usage                                2504400                       # Number of bytes of host memory used
host_seconds                                  5013.90                       # Real time elapsed on the host
sim_insts                                  1200000014                       # Number of instructions simulated
sim_ops                                    1200000014                       # Number of ops (including micro ops) simulated
system.voltage_domain.voltage                       1                       # Voltage in Volts
system.clk_domain.clock                          1000                       # Clock period in ticks
system.mem_ctrls0.pwrStateResidencyTicks::UNDEFINED 72965668526433                       # Cumulative time (in ticks) in various power states
system.mem_ctrls0.bytes_read::cpu.inst             64                       # Number of bytes read from this memory
system.mem_ctrls0.bytes_read::cpu.data            128                       # Number of bytes read from this memory
system.mem_ctrls0.bytes_read::switch_cpus.inst       131264                       # Number of bytes read from this memory
system.mem_ctrls0.bytes_read::switch_cpus.data    410382592                       # Number of bytes read from this memory
system.mem_ctrls0.bytes_read::switch_cpus_1.inst        38336                       # Number of bytes read from this memory
system.mem_ctrls0.bytes_read::switch_cpus_1.data     87890816                       # Number of bytes read from this memory
system.mem_ctrls0.bytes_read::total         498443200                       # Number of bytes read from this memory
system.mem_ctrls0.bytes_inst_read::cpu.inst           64                       # Number of instructions bytes read from this memory
system.mem_ctrls0.bytes_inst_read::switch_cpus.inst       131264                       # Number of instructions bytes read from this memory
system.mem_ctrls0.bytes_inst_read::switch_cpus_1.inst        38336                       # Number of instructions bytes read from this memory
system.mem_ctrls0.bytes_inst_read::total       169664                       # Number of instructions bytes read from this memory
system.mem_ctrls0.bytes_written::writebacks    166185984                       # Number of bytes written to this memory
system.mem_ctrls0.bytes_written::total      166185984                       # Number of bytes written to this memory
system.mem_ctrls0.num_reads::cpu.inst               1                       # Number of read requests responded to by this memory
system.mem_ctrls0.num_reads::cpu.data               2                       # Number of read requests responded to by this memory
system.mem_ctrls0.num_reads::switch_cpus.inst         2051                       # Number of read requests responded to by this memory
system.mem_ctrls0.num_reads::switch_cpus.data      6412228                       # Number of read requests responded to by this memory
system.mem_ctrls0.num_reads::switch_cpus_1.inst          599                       # Number of read requests responded to by this memory
system.mem_ctrls0.num_reads::switch_cpus_1.data      1373294                       # Number of read requests responded to by this memory
system.mem_ctrls0.num_reads::total            7788175                       # Number of read requests responded to by this memory
system.mem_ctrls0.num_writes::writebacks      2596656                       # Number of write requests responded to by this memory
system.mem_ctrls0.num_writes::total           2596656                       # Number of write requests responded to by this memory
system.mem_ctrls0.bw_read::cpu.inst                22                       # Total read bandwidth from this memory (bytes/s)
system.mem_ctrls0.bw_read::cpu.data                44                       # Total read bandwidth from this memory (bytes/s)
system.mem_ctrls0.bw_read::switch_cpus.inst        44713                       # Total read bandwidth from this memory (bytes/s)
system.mem_ctrls0.bw_read::switch_cpus.data    139790564                       # Total read bandwidth from this memory (bytes/s)
system.mem_ctrls0.bw_read::switch_cpus_1.inst        13059                       # Total read bandwidth from this memory (bytes/s)
system.mem_ctrls0.bw_read::switch_cpus_1.data     29938665                       # Total read bandwidth from this memory (bytes/s)
system.mem_ctrls0.bw_read::total            169787066                       # Total read bandwidth from this memory (bytes/s)
system.mem_ctrls0.bw_inst_read::cpu.inst           22                       # Instruction read bandwidth from this memory (bytes/s)
system.mem_ctrls0.bw_inst_read::switch_cpus.inst        44713                       # Instruction read bandwidth from this memory (bytes/s)
system.mem_ctrls0.bw_inst_read::switch_cpus_1.inst        13059                       # Instruction read bandwidth from this memory (bytes/s)
system.mem_ctrls0.bw_inst_read::total           57793                       # Instruction read bandwidth from this memory (bytes/s)
system.mem_ctrls0.bw_write::writebacks       56608718                       # Write bandwidth from this memory (bytes/s)
system.mem_ctrls0.bw_write::total            56608718                       # Write bandwidth from this memory (bytes/s)
system.mem_ctrls0.bw_total::writebacks       56608718                       # Total bandwidth to/from this memory (bytes/s)
system.mem_ctrls0.bw_total::cpu.inst               22                       # Total bandwidth to/from this memory (bytes/s)
system.mem_ctrls0.bw_total::cpu.data               44                       # Total bandwidth to/from this memory (bytes/s)
system.mem_ctrls0.bw_total::switch_cpus.inst        44713                       # Total bandwidth to/from this memory (bytes/s)
system.mem_ctrls0.bw_total::switch_cpus.data    139790564                       # Total bandwidth to/from this memory (bytes/s)
system.mem_ctrls0.bw_total::switch_cpus_1.inst        13059                       # Total bandwidth to/from this memory (bytes/s)
system.mem_ctrls0.bw_total::switch_cpus_1.data     29938665                       # Total bandwidth to/from this memory (bytes/s)
system.mem_ctrls0.bw_total::total           226395784                       # Total bandwidth to/from this memory (bytes/s)
system.mem_ctrls0.readReqs                    7788175                       # Number of read requests accepted
system.mem_ctrls0.writeReqs                   2596656                       # Number of write requests accepted
system.mem_ctrls0.readBursts                  7788175                       # Number of DRAM read bursts, including those serviced by the write queue
system.mem_ctrls0.writeBursts                 2596656                       # Number of DRAM write bursts, including those merged in the write queue
system.mem_ctrls0.bytesReadDRAM             497982144                       # Total number of bytes read from DRAM
system.mem_ctrls0.bytesReadWrQ                 461056                       # Total number of bytes read from write queue
system.mem_ctrls0.bytesWritten              166184448                       # Total number of bytes written to DRAM
system.mem_ctrls0.bytesReadSys              498443200                       # Total read bytes from the system interface side
system.mem_ctrls0.bytesWrittenSys           166185984                       # Total written bytes from the system interface side
system.mem_ctrls0.servicedByWrQ                  7204                       # Number of DRAM read bursts serviced by the write queue
system.mem_ctrls0.mergedWrBursts                    0                       # Number of DRAM write bursts merged with an existing one
system.mem_ctrls0.neitherReadNorWriteReqs            0                       # Number of requests that are neither read nor write
system.mem_ctrls0.perBankRdBursts::0           509959                       # Per bank write bursts
system.mem_ctrls0.perBankRdBursts::1           496077                       # Per bank write bursts
system.mem_ctrls0.perBankRdBursts::2           488500                       # Per bank write bursts
system.mem_ctrls0.perBankRdBursts::3           487932                       # Per bank write bursts
system.mem_ctrls0.perBankRdBursts::4           484432                       # Per bank write bursts
system.mem_ctrls0.perBankRdBursts::5           499493                       # Per bank write bursts
system.mem_ctrls0.perBankRdBursts::6           476514                       # Per bank write bursts
system.mem_ctrls0.perBankRdBursts::7           486893                       # Per bank write bursts
system.mem_ctrls0.perBankRdBursts::8           490348                       # Per bank write bursts
system.mem_ctrls0.perBankRdBursts::9           481779                       # Per bank write bursts
system.mem_ctrls0.perBankRdBursts::10          477289                       # Per bank write bursts
system.mem_ctrls0.perBankRdBursts::11          483497                       # Per bank write bursts
system.mem_ctrls0.perBankRdBursts::12          472347                       # Per bank write bursts
system.mem_ctrls0.perBankRdBursts::13          470504                       # Per bank write bursts
system.mem_ctrls0.perBankRdBursts::14          479331                       # Per bank write bursts
system.mem_ctrls0.perBankRdBursts::15          496076                       # Per bank write bursts
system.mem_ctrls0.perBankWrBursts::0           171644                       # Per bank write bursts
system.mem_ctrls0.perBankWrBursts::1           162143                       # Per bank write bursts
system.mem_ctrls0.perBankWrBursts::2           166219                       # Per bank write bursts
system.mem_ctrls0.perBankWrBursts::3           163731                       # Per bank write bursts
system.mem_ctrls0.perBankWrBursts::4           161192                       # Per bank write bursts
system.mem_ctrls0.perBankWrBursts::5           163145                       # Per bank write bursts
system.mem_ctrls0.perBankWrBursts::6           158170                       # Per bank write bursts
system.mem_ctrls0.perBankWrBursts::7           159888                       # Per bank write bursts
system.mem_ctrls0.perBankWrBursts::8           159390                       # Per bank write bursts
system.mem_ctrls0.perBankWrBursts::9           156988                       # Per bank write bursts
system.mem_ctrls0.perBankWrBursts::10          156618                       # Per bank write bursts
system.mem_ctrls0.perBankWrBursts::11          156288                       # Per bank write bursts
system.mem_ctrls0.perBankWrBursts::12          154166                       # Per bank write bursts
system.mem_ctrls0.perBankWrBursts::13          161873                       # Per bank write bursts
system.mem_ctrls0.perBankWrBursts::14          170259                       # Per bank write bursts
system.mem_ctrls0.perBankWrBursts::15          174918                       # Per bank write bursts
system.mem_ctrls0.numRdRetry                        0                       # Number of times read queue was full causing retry
system.mem_ctrls0.numWrRetry                        0                       # Number of times write queue was full causing retry
system.mem_ctrls0.totGap                 2935695488211                       # Total gap between requests
system.mem_ctrls0.readPktSize::0                    0                       # Read request sizes (log2)
system.mem_ctrls0.readPktSize::1                    0                       # Read request sizes (log2)
system.mem_ctrls0.readPktSize::2                    0                       # Read request sizes (log2)
system.mem_ctrls0.readPktSize::3                    0                       # Read request sizes (log2)
system.mem_ctrls0.readPktSize::4                    0                       # Read request sizes (log2)
system.mem_ctrls0.readPktSize::5                    0                       # Read request sizes (log2)
system.mem_ctrls0.readPktSize::6              7788175                       # Read request sizes (log2)
system.mem_ctrls0.writePktSize::0                   0                       # Write request sizes (log2)
system.mem_ctrls0.writePktSize::1                   0                       # Write request sizes (log2)
system.mem_ctrls0.writePktSize::2                   0                       # Write request sizes (log2)
system.mem_ctrls0.writePktSize::3                   0                       # Write request sizes (log2)
system.mem_ctrls0.writePktSize::4                   0                       # Write request sizes (log2)
system.mem_ctrls0.writePktSize::5                   0                       # Write request sizes (log2)
system.mem_ctrls0.writePktSize::6             2596656                       # Write request sizes (log2)
system.mem_ctrls0.rdQLenPdf::0                7379729                       # What read queue length does an incoming req see
system.mem_ctrls0.rdQLenPdf::1                 342876                       # What read queue length does an incoming req see
system.mem_ctrls0.rdQLenPdf::2                  53589                       # What read queue length does an incoming req see
system.mem_ctrls0.rdQLenPdf::3                   4777                       # What read queue length does an incoming req see
system.mem_ctrls0.rdQLenPdf::4                      0                       # What read queue length does an incoming req see
system.mem_ctrls0.rdQLenPdf::5                      0                       # What read queue length does an incoming req see
system.mem_ctrls0.rdQLenPdf::6                      0                       # What read queue length does an incoming req see
system.mem_ctrls0.rdQLenPdf::7                      0                       # What read queue length does an incoming req see
system.mem_ctrls0.rdQLenPdf::8                      0                       # What read queue length does an incoming req see
system.mem_ctrls0.rdQLenPdf::9                      0                       # What read queue length does an incoming req see
system.mem_ctrls0.rdQLenPdf::10                     0                       # What read queue length does an incoming req see
system.mem_ctrls0.rdQLenPdf::11                     0                       # What read queue length does an incoming req see
system.mem_ctrls0.rdQLenPdf::12                     0                       # What read queue length does an incoming req see
system.mem_ctrls0.rdQLenPdf::13                     0                       # What read queue length does an incoming req see
system.mem_ctrls0.rdQLenPdf::14                     0                       # What read queue length does an incoming req see
system.mem_ctrls0.rdQLenPdf::15                     0                       # What read queue length does an incoming req see
system.mem_ctrls0.rdQLenPdf::16                     0                       # What read queue length does an incoming req see
system.mem_ctrls0.rdQLenPdf::17                     0                       # What read queue length does an incoming req see
system.mem_ctrls0.rdQLenPdf::18                     0                       # What read queue length does an incoming req see
system.mem_ctrls0.rdQLenPdf::19                     0                       # What read queue length does an incoming req see
system.mem_ctrls0.rdQLenPdf::20                     0                       # What read queue length does an incoming req see
system.mem_ctrls0.rdQLenPdf::21                     0                       # What read queue length does an incoming req see
system.mem_ctrls0.rdQLenPdf::22                     0                       # What read queue length does an incoming req see
system.mem_ctrls0.rdQLenPdf::23                     0                       # What read queue length does an incoming req see
system.mem_ctrls0.rdQLenPdf::24                     0                       # What read queue length does an incoming req see
system.mem_ctrls0.rdQLenPdf::25                     0                       # What read queue length does an incoming req see
system.mem_ctrls0.rdQLenPdf::26                     0                       # What read queue length does an incoming req see
system.mem_ctrls0.rdQLenPdf::27                     0                       # What read queue length does an incoming req see
system.mem_ctrls0.rdQLenPdf::28                     0                       # What read queue length does an incoming req see
system.mem_ctrls0.rdQLenPdf::29                     0                       # What read queue length does an incoming req see
system.mem_ctrls0.rdQLenPdf::30                     0                       # What read queue length does an incoming req see
system.mem_ctrls0.rdQLenPdf::31                     0                       # What read queue length does an incoming req see
system.mem_ctrls0.wrQLenPdf::0                      2                       # What write queue length does an incoming req see
system.mem_ctrls0.wrQLenPdf::1                      2                       # What write queue length does an incoming req see
system.mem_ctrls0.wrQLenPdf::2                      2                       # What write queue length does an incoming req see
system.mem_ctrls0.wrQLenPdf::3                      2                       # What write queue length does an incoming req see
system.mem_ctrls0.wrQLenPdf::4                      2                       # What write queue length does an incoming req see
system.mem_ctrls0.wrQLenPdf::5                      2                       # What write queue length does an incoming req see
system.mem_ctrls0.wrQLenPdf::6                      2                       # What write queue length does an incoming req see
system.mem_ctrls0.wrQLenPdf::7                      2                       # What write queue length does an incoming req see
system.mem_ctrls0.wrQLenPdf::8                      2                       # What write queue length does an incoming req see
system.mem_ctrls0.wrQLenPdf::9                      2                       # What write queue length does an incoming req see
system.mem_ctrls0.wrQLenPdf::10                     2                       # What write queue length does an incoming req see
system.mem_ctrls0.wrQLenPdf::11                     2                       # What write queue length does an incoming req see
system.mem_ctrls0.wrQLenPdf::12                     2                       # What write queue length does an incoming req see
system.mem_ctrls0.wrQLenPdf::13                     2                       # What write queue length does an incoming req see
system.mem_ctrls0.wrQLenPdf::14                     2                       # What write queue length does an incoming req see
system.mem_ctrls0.wrQLenPdf::15                 96133                       # What write queue length does an incoming req see
system.mem_ctrls0.wrQLenPdf::16                100567                       # What write queue length does an incoming req see
system.mem_ctrls0.wrQLenPdf::17                144108                       # What write queue length does an incoming req see
system.mem_ctrls0.wrQLenPdf::18                149234                       # What write queue length does an incoming req see
system.mem_ctrls0.wrQLenPdf::19                150130                       # What write queue length does an incoming req see
system.mem_ctrls0.wrQLenPdf::20                150359                       # What write queue length does an incoming req see
system.mem_ctrls0.wrQLenPdf::21                150303                       # What write queue length does an incoming req see
system.mem_ctrls0.wrQLenPdf::22                150512                       # What write queue length does an incoming req see
system.mem_ctrls0.wrQLenPdf::23                150536                       # What write queue length does an incoming req see
system.mem_ctrls0.wrQLenPdf::24                150725                       # What write queue length does an incoming req see
system.mem_ctrls0.wrQLenPdf::25                152127                       # What write queue length does an incoming req see
system.mem_ctrls0.wrQLenPdf::26                150988                       # What write queue length does an incoming req see
system.mem_ctrls0.wrQLenPdf::27                150335                       # What write queue length does an incoming req see
system.mem_ctrls0.wrQLenPdf::28                150340                       # What write queue length does an incoming req see
system.mem_ctrls0.wrQLenPdf::29                150410                       # What write queue length does an incoming req see
system.mem_ctrls0.wrQLenPdf::30                150666                       # What write queue length does an incoming req see
system.mem_ctrls0.wrQLenPdf::31                149524                       # What write queue length does an incoming req see
system.mem_ctrls0.wrQLenPdf::32                149411                       # What write queue length does an incoming req see
system.mem_ctrls0.wrQLenPdf::33                   161                       # What write queue length does an incoming req see
system.mem_ctrls0.wrQLenPdf::34                    41                       # What write queue length does an incoming req see
system.mem_ctrls0.wrQLenPdf::35                    15                       # What write queue length does an incoming req see
system.mem_ctrls0.wrQLenPdf::36                     1                       # What write queue length does an incoming req see
system.mem_ctrls0.wrQLenPdf::37                     0                       # What write queue length does an incoming req see
system.mem_ctrls0.wrQLenPdf::38                     0                       # What write queue length does an incoming req see
system.mem_ctrls0.wrQLenPdf::39                     0                       # What write queue length does an incoming req see
system.mem_ctrls0.wrQLenPdf::40                     0                       # What write queue length does an incoming req see
system.mem_ctrls0.wrQLenPdf::41                     0                       # What write queue length does an incoming req see
system.mem_ctrls0.wrQLenPdf::42                     0                       # What write queue length does an incoming req see
system.mem_ctrls0.wrQLenPdf::43                     0                       # What write queue length does an incoming req see
system.mem_ctrls0.wrQLenPdf::44                     0                       # What write queue length does an incoming req see
system.mem_ctrls0.wrQLenPdf::45                     0                       # What write queue length does an incoming req see
system.mem_ctrls0.wrQLenPdf::46                     0                       # What write queue length does an incoming req see
system.mem_ctrls0.wrQLenPdf::47                     0                       # What write queue length does an incoming req see
system.mem_ctrls0.wrQLenPdf::48                     0                       # What write queue length does an incoming req see
system.mem_ctrls0.wrQLenPdf::49                     0                       # What write queue length does an incoming req see
system.mem_ctrls0.wrQLenPdf::50                     0                       # What write queue length does an incoming req see
system.mem_ctrls0.wrQLenPdf::51                     0                       # What write queue length does an incoming req see
system.mem_ctrls0.wrQLenPdf::52                     0                       # What write queue length does an incoming req see
system.mem_ctrls0.wrQLenPdf::53                     0                       # What write queue length does an incoming req see
system.mem_ctrls0.wrQLenPdf::54                     0                       # What write queue length does an incoming req see
system.mem_ctrls0.wrQLenPdf::55                     0                       # What write queue length does an incoming req see
system.mem_ctrls0.wrQLenPdf::56                     0                       # What write queue length does an incoming req see
system.mem_ctrls0.wrQLenPdf::57                     0                       # What write queue length does an incoming req see
system.mem_ctrls0.wrQLenPdf::58                     0                       # What write queue length does an incoming req see
system.mem_ctrls0.wrQLenPdf::59                     0                       # What write queue length does an incoming req see
system.mem_ctrls0.wrQLenPdf::60                     0                       # What write queue length does an incoming req see
system.mem_ctrls0.wrQLenPdf::61                     0                       # What write queue length does an incoming req see
system.mem_ctrls0.wrQLenPdf::62                     0                       # What write queue length does an incoming req see
system.mem_ctrls0.wrQLenPdf::63                     0                       # What write queue length does an incoming req see
system.mem_ctrls0.bytesPerActivate::samples      4644361                       # Bytes accessed per row activation
system.mem_ctrls0.bytesPerActivate::mean   143.004918                       # Bytes accessed per row activation
system.mem_ctrls0.bytesPerActivate::gmean    98.712995                       # Bytes accessed per row activation
system.mem_ctrls0.bytesPerActivate::stdev   184.337343                       # Bytes accessed per row activation
system.mem_ctrls0.bytesPerActivate::0-127      3045654     65.58%     65.58% # Bytes accessed per row activation
system.mem_ctrls0.bytesPerActivate::128-255       975182     21.00%     86.57% # Bytes accessed per row activation
system.mem_ctrls0.bytesPerActivate::256-383       241170      5.19%     91.77% # Bytes accessed per row activation
system.mem_ctrls0.bytesPerActivate::384-511       114222      2.46%     94.23% # Bytes accessed per row activation
system.mem_ctrls0.bytesPerActivate::512-639        61571      1.33%     95.55% # Bytes accessed per row activation
system.mem_ctrls0.bytesPerActivate::640-767        46138      0.99%     96.55% # Bytes accessed per row activation
system.mem_ctrls0.bytesPerActivate::768-895        45706      0.98%     97.53% # Bytes accessed per row activation
system.mem_ctrls0.bytesPerActivate::896-1023        34023      0.73%     98.26% # Bytes accessed per row activation
system.mem_ctrls0.bytesPerActivate::1024-1151        80695      1.74%    100.00% # Bytes accessed per row activation
system.mem_ctrls0.bytesPerActivate::total      4644361                       # Bytes accessed per row activation
system.mem_ctrls0.rdPerTurnAround::samples       149364                       # Reads before turning the bus around for writes
system.mem_ctrls0.rdPerTurnAround::mean     52.093865                       # Reads before turning the bus around for writes
system.mem_ctrls0.rdPerTurnAround::stdev   120.260414                       # Reads before turning the bus around for writes
system.mem_ctrls0.rdPerTurnAround::0-1023       149205     99.89%     99.89% # Reads before turning the bus around for writes
system.mem_ctrls0.rdPerTurnAround::1024-2047           97      0.06%     99.96% # Reads before turning the bus around for writes
system.mem_ctrls0.rdPerTurnAround::2048-3071           47      0.03%     99.99% # Reads before turning the bus around for writes
system.mem_ctrls0.rdPerTurnAround::3072-4095           12      0.01%    100.00% # Reads before turning the bus around for writes
system.mem_ctrls0.rdPerTurnAround::4096-5119            2      0.00%    100.00% # Reads before turning the bus around for writes
system.mem_ctrls0.rdPerTurnAround::30720-31743            1      0.00%    100.00% # Reads before turning the bus around for writes
system.mem_ctrls0.rdPerTurnAround::total       149364                       # Reads before turning the bus around for writes
system.mem_ctrls0.wrPerTurnAround::samples       149364                       # Writes before turning the bus around for reads
system.mem_ctrls0.wrPerTurnAround::mean     17.384591                       # Writes before turning the bus around for reads
system.mem_ctrls0.wrPerTurnAround::gmean    17.353901                       # Writes before turning the bus around for reads
system.mem_ctrls0.wrPerTurnAround::stdev     1.025604                       # Writes before turning the bus around for reads
system.mem_ctrls0.wrPerTurnAround::15               1      0.00%      0.00% # Writes before turning the bus around for reads
system.mem_ctrls0.wrPerTurnAround::16           49156     32.91%     32.91% # Writes before turning the bus around for reads
system.mem_ctrls0.wrPerTurnAround::17            3544      2.37%     35.28% # Writes before turning the bus around for reads
system.mem_ctrls0.wrPerTurnAround::18           88095     58.98%     94.26% # Writes before turning the bus around for reads
system.mem_ctrls0.wrPerTurnAround::19            7495      5.02%     99.28% # Writes before turning the bus around for reads
system.mem_ctrls0.wrPerTurnAround::20             859      0.58%     99.86% # Writes before turning the bus around for reads
system.mem_ctrls0.wrPerTurnAround::21             150      0.10%     99.96% # Writes before turning the bus around for reads
system.mem_ctrls0.wrPerTurnAround::22              50      0.03%     99.99% # Writes before turning the bus around for reads
system.mem_ctrls0.wrPerTurnAround::23              10      0.01%    100.00% # Writes before turning the bus around for reads
system.mem_ctrls0.wrPerTurnAround::24               2      0.00%    100.00% # Writes before turning the bus around for reads
system.mem_ctrls0.wrPerTurnAround::25               2      0.00%    100.00% # Writes before turning the bus around for reads
system.mem_ctrls0.wrPerTurnAround::total       149364                       # Writes before turning the bus around for reads
system.mem_ctrls0.totQLat                146004198828                       # Total ticks spent queuing
system.mem_ctrls0.totMemAccLat           291897405078                       # Total ticks spent from burst creation until serviced by the DRAM
system.mem_ctrls0.totBusLat               38904855000                       # Total ticks spent in databus transfers
system.mem_ctrls0.avgQLat                    18764.26                       # Average queueing delay per DRAM burst
system.mem_ctrls0.avgBusLat                   5000.00                       # Average bus latency per DRAM burst
system.mem_ctrls0.avgMemAccLat               37514.26                       # Average memory access latency per DRAM burst
system.mem_ctrls0.avgRdBW                      169.63                       # Average DRAM read bandwidth in MiByte/s
system.mem_ctrls0.avgWrBW                       56.61                       # Average achieved write bandwidth in MiByte/s
system.mem_ctrls0.avgRdBWSys                   169.79                       # Average system read bandwidth in MiByte/s
system.mem_ctrls0.avgWrBWSys                    56.61                       # Average system write bandwidth in MiByte/s
system.mem_ctrls0.peakBW                     12800.00                       # Theoretical peak bandwidth in MiByte/s
system.mem_ctrls0.busUtil                        1.77                       # Data bus utilization in percentage
system.mem_ctrls0.busUtilRead                    1.33                       # Data bus utilization in percentage for reads
system.mem_ctrls0.busUtilWrite                   0.44                       # Data bus utilization in percentage for writes
system.mem_ctrls0.avgRdQLen                      1.03                       # Average read queue length when enqueuing
system.mem_ctrls0.avgWrQLen                     24.68                       # Average write queue length when enqueuing
system.mem_ctrls0.readRowHits                 5106451                       # Number of row buffer hits during reads
system.mem_ctrls0.writeRowHits                 626789                       # Number of row buffer hits during writes
system.mem_ctrls0.readRowHitRate                65.63                       # Row buffer hit rate for reads
system.mem_ctrls0.writeRowHitRate               24.14                       # Row buffer hit rate for writes
system.mem_ctrls0.avgGap                    282690.73                       # Average gap between requests
system.mem_ctrls0.pageHitRate                   55.25                       # Row buffer hit rate, read and write combined
system.mem_ctrls0_0.actEnergy             16621927140                       # Energy for activate commands per rank (pJ)
system.mem_ctrls0_0.preEnergy              8834763795                       # Energy for precharge commands per rank (pJ)
system.mem_ctrls0_0.readEnergy            28058772000                       # Energy for read commands per rank (pJ)
system.mem_ctrls0_0.writeEnergy            6818009040                       # Energy for write commands per rank (pJ)
system.mem_ctrls0_0.refreshEnergy        222359542080.000061                       # Energy for refresh commands per rank (pJ)
system.mem_ctrls0_0.actBackEnergy        150209419860                       # Energy for active background per rank (pJ)
system.mem_ctrls0_0.preBackEnergy          6032614080                       # Energy for precharge background per rank (pJ)
system.mem_ctrls0_0.actPowerDownEnergy   942453876210                       # Energy for active power-down per rank (pJ)
system.mem_ctrls0_0.prePowerDownEnergy   124080804000                       # Energy for precharge power-down per rank (pJ)
system.mem_ctrls0_0.selfRefreshEnergy     54411890130                       # Energy for self refresh per rank (pJ)
system.mem_ctrls0_0.totalEnergy          1559963113905                       # Total energy per rank (pJ)
system.mem_ctrls0_0.averagePower           531.377614                       # Core power per rank (mW)
system.mem_ctrls0_0.totalIdleTime        2590398069791                       # Total Idle time Per DRAM Rank
system.mem_ctrls0_0.memoryStateTime::IDLE   5148446207                       # Time in different power states
system.mem_ctrls0_0.memoryStateTime::REF  94139614000                       # Time in different power states
system.mem_ctrls0_0.memoryStateTime::SREF 200486211745                       # Time in different power states
system.mem_ctrls0_0.memoryStateTime::PRE_PDN 323129525260                       # Time in different power states
system.mem_ctrls0_0.memoryStateTime::ACT 246009783210                       # Time in different power states
system.mem_ctrls0_0.memoryStateTime::ACT_PDN 2066782364665                       # Time in different power states
system.mem_ctrls0_1.actEnergy             16538824680                       # Energy for activate commands per rank (pJ)
system.mem_ctrls0_1.preEnergy              8790586200                       # Energy for precharge commands per rank (pJ)
system.mem_ctrls0_1.readEnergy            27497360940                       # Energy for read commands per rank (pJ)
system.mem_ctrls0_1.writeEnergy            6736410000                       # Energy for write commands per rank (pJ)
system.mem_ctrls0_1.refreshEnergy        221655164640.000061                       # Energy for refresh commands per rank (pJ)
system.mem_ctrls0_1.actBackEnergy        149801440080                       # Energy for active background per rank (pJ)
system.mem_ctrls0_1.preBackEnergy          6099555360                       # Energy for precharge background per rank (pJ)
system.mem_ctrls0_1.actPowerDownEnergy   933150253560                       # Energy for active power-down per rank (pJ)
system.mem_ctrls0_1.prePowerDownEnergy   126270012960                       # Energy for precharge power-down per rank (pJ)
system.mem_ctrls0_1.selfRefreshEnergy     58608027270                       # Energy for self refresh per rank (pJ)
system.mem_ctrls0_1.totalEnergy          1555224768660                       # Total energy per rank (pJ)
system.mem_ctrls0_1.averagePower           529.763568                       # Core power per rank (mW)
system.mem_ctrls0_1.totalIdleTime        2591127131305                       # Total Idle time Per DRAM Rank
system.mem_ctrls0_1.memoryStateTime::IDLE   5442796364                       # Time in different power states
system.mem_ctrls0_1.memoryStateTime::REF  93845746000                       # Time in different power states
system.mem_ctrls0_1.memoryStateTime::SREF 215917843602                       # Time in different power states
system.mem_ctrls0_1.memoryStateTime::PRE_PDN 328827679586                       # Time in different power states
system.mem_ctrls0_1.memoryStateTime::ACT 245279986575                       # Time in different power states
system.mem_ctrls0_1.memoryStateTime::ACT_PDN 2046381892960                       # Time in different power states
system.mem_ctrls1.pwrStateResidencyTicks::UNDEFINED 72965668526433                       # Cumulative time (in ticks) in various power states
system.mem_ctrls1.bytes_read::cpu.inst             64                       # Number of bytes read from this memory
system.mem_ctrls1.bytes_read::switch_cpus.inst       115328                       # Number of bytes read from this memory
system.mem_ctrls1.bytes_read::switch_cpus.data    410792896                       # Number of bytes read from this memory
system.mem_ctrls1.bytes_read::switch_cpus_1.inst        36288                       # Number of bytes read from this memory
system.mem_ctrls1.bytes_read::switch_cpus_1.data     87902272                       # Number of bytes read from this memory
system.mem_ctrls1.bytes_read::total         498846848                       # Number of bytes read from this memory
system.mem_ctrls1.bytes_inst_read::cpu.inst           64                       # Number of instructions bytes read from this memory
system.mem_ctrls1.bytes_inst_read::switch_cpus.inst       115328                       # Number of instructions bytes read from this memory
system.mem_ctrls1.bytes_inst_read::switch_cpus_1.inst        36288                       # Number of instructions bytes read from this memory
system.mem_ctrls1.bytes_inst_read::total       151680                       # Number of instructions bytes read from this memory
system.mem_ctrls1.bytes_written::writebacks    166206400                       # Number of bytes written to this memory
system.mem_ctrls1.bytes_written::total      166206400                       # Number of bytes written to this memory
system.mem_ctrls1.num_reads::cpu.inst               1                       # Number of read requests responded to by this memory
system.mem_ctrls1.num_reads::switch_cpus.inst         1802                       # Number of read requests responded to by this memory
system.mem_ctrls1.num_reads::switch_cpus.data      6418639                       # Number of read requests responded to by this memory
system.mem_ctrls1.num_reads::switch_cpus_1.inst          567                       # Number of read requests responded to by this memory
system.mem_ctrls1.num_reads::switch_cpus_1.data      1373473                       # Number of read requests responded to by this memory
system.mem_ctrls1.num_reads::total            7794482                       # Number of read requests responded to by this memory
system.mem_ctrls1.num_writes::writebacks      2596975                       # Number of write requests responded to by this memory
system.mem_ctrls1.num_writes::total           2596975                       # Number of write requests responded to by this memory
system.mem_ctrls1.bw_read::cpu.inst                22                       # Total read bandwidth from this memory (bytes/s)
system.mem_ctrls1.bw_read::switch_cpus.inst        39285                       # Total read bandwidth from this memory (bytes/s)
system.mem_ctrls1.bw_read::switch_cpus.data    139930328                       # Total read bandwidth from this memory (bytes/s)
system.mem_ctrls1.bw_read::switch_cpus_1.inst        12361                       # Total read bandwidth from this memory (bytes/s)
system.mem_ctrls1.bw_read::switch_cpus_1.data     29942567                       # Total read bandwidth from this memory (bytes/s)
system.mem_ctrls1.bw_read::total            169924562                       # Total read bandwidth from this memory (bytes/s)
system.mem_ctrls1.bw_inst_read::cpu.inst           22                       # Instruction read bandwidth from this memory (bytes/s)
system.mem_ctrls1.bw_inst_read::switch_cpus.inst        39285                       # Instruction read bandwidth from this memory (bytes/s)
system.mem_ctrls1.bw_inst_read::switch_cpus_1.inst        12361                       # Instruction read bandwidth from this memory (bytes/s)
system.mem_ctrls1.bw_inst_read::total           51667                       # Instruction read bandwidth from this memory (bytes/s)
system.mem_ctrls1.bw_write::writebacks       56615672                       # Write bandwidth from this memory (bytes/s)
system.mem_ctrls1.bw_write::total            56615672                       # Write bandwidth from this memory (bytes/s)
system.mem_ctrls1.bw_total::writebacks       56615672                       # Total bandwidth to/from this memory (bytes/s)
system.mem_ctrls1.bw_total::cpu.inst               22                       # Total bandwidth to/from this memory (bytes/s)
system.mem_ctrls1.bw_total::switch_cpus.inst        39285                       # Total bandwidth to/from this memory (bytes/s)
system.mem_ctrls1.bw_total::switch_cpus.data    139930328                       # Total bandwidth to/from this memory (bytes/s)
system.mem_ctrls1.bw_total::switch_cpus_1.inst        12361                       # Total bandwidth to/from this memory (bytes/s)
system.mem_ctrls1.bw_total::switch_cpus_1.data     29942567                       # Total bandwidth to/from this memory (bytes/s)
system.mem_ctrls1.bw_total::total           226540235                       # Total bandwidth to/from this memory (bytes/s)
system.mem_ctrls1.readReqs                    7794482                       # Number of read requests accepted
system.mem_ctrls1.writeReqs                   2596975                       # Number of write requests accepted
system.mem_ctrls1.readBursts                  7794482                       # Number of DRAM read bursts, including those serviced by the write queue
system.mem_ctrls1.writeBursts                 2596975                       # Number of DRAM write bursts, including those merged in the write queue
system.mem_ctrls1.bytesReadDRAM             498387968                       # Total number of bytes read from DRAM
system.mem_ctrls1.bytesReadWrQ                 458880                       # Total number of bytes read from write queue
system.mem_ctrls1.bytesWritten              166205248                       # Total number of bytes written to DRAM
system.mem_ctrls1.bytesReadSys              498846848                       # Total read bytes from the system interface side
system.mem_ctrls1.bytesWrittenSys           166206400                       # Total written bytes from the system interface side
system.mem_ctrls1.servicedByWrQ                  7170                       # Number of DRAM read bursts serviced by the write queue
system.mem_ctrls1.mergedWrBursts                    1                       # Number of DRAM write bursts merged with an existing one
system.mem_ctrls1.neitherReadNorWriteReqs            0                       # Number of requests that are neither read nor write
system.mem_ctrls1.perBankRdBursts::0           506939                       # Per bank write bursts
system.mem_ctrls1.perBankRdBursts::1           496183                       # Per bank write bursts
system.mem_ctrls1.perBankRdBursts::2           489209                       # Per bank write bursts
system.mem_ctrls1.perBankRdBursts::3           490581                       # Per bank write bursts
system.mem_ctrls1.perBankRdBursts::4           487534                       # Per bank write bursts
system.mem_ctrls1.perBankRdBursts::5           498926                       # Per bank write bursts
system.mem_ctrls1.perBankRdBursts::6           480682                       # Per bank write bursts
system.mem_ctrls1.perBankRdBursts::7           484024                       # Per bank write bursts
system.mem_ctrls1.perBankRdBursts::8           494851                       # Per bank write bursts
system.mem_ctrls1.perBankRdBursts::9           476567                       # Per bank write bursts
system.mem_ctrls1.perBankRdBursts::10          480660                       # Per bank write bursts
system.mem_ctrls1.perBankRdBursts::11          481225                       # Per bank write bursts
system.mem_ctrls1.perBankRdBursts::12          474396                       # Per bank write bursts
system.mem_ctrls1.perBankRdBursts::13          475577                       # Per bank write bursts
system.mem_ctrls1.perBankRdBursts::14          476370                       # Per bank write bursts
system.mem_ctrls1.perBankRdBursts::15          493588                       # Per bank write bursts
system.mem_ctrls1.perBankWrBursts::0           171751                       # Per bank write bursts
system.mem_ctrls1.perBankWrBursts::1           162406                       # Per bank write bursts
system.mem_ctrls1.perBankWrBursts::2           166119                       # Per bank write bursts
system.mem_ctrls1.perBankWrBursts::3           163623                       # Per bank write bursts
system.mem_ctrls1.perBankWrBursts::4           161717                       # Per bank write bursts
system.mem_ctrls1.perBankWrBursts::5           162763                       # Per bank write bursts
system.mem_ctrls1.perBankWrBursts::6           158873                       # Per bank write bursts
system.mem_ctrls1.perBankWrBursts::7           159678                       # Per bank write bursts
system.mem_ctrls1.perBankWrBursts::8           159855                       # Per bank write bursts
system.mem_ctrls1.perBankWrBursts::9           156474                       # Per bank write bursts
system.mem_ctrls1.perBankWrBursts::10          156729                       # Per bank write bursts
system.mem_ctrls1.perBankWrBursts::11          156253                       # Per bank write bursts
system.mem_ctrls1.perBankWrBursts::12          154523                       # Per bank write bursts
system.mem_ctrls1.perBankWrBursts::13          161744                       # Per bank write bursts
system.mem_ctrls1.perBankWrBursts::14          170628                       # Per bank write bursts
system.mem_ctrls1.perBankWrBursts::15          173821                       # Per bank write bursts
system.mem_ctrls1.numRdRetry                        0                       # Number of times read queue was full causing retry
system.mem_ctrls1.numWrRetry                        0                       # Number of times write queue was full causing retry
system.mem_ctrls1.totGap                 2935695682350                       # Total gap between requests
system.mem_ctrls1.readPktSize::0                    0                       # Read request sizes (log2)
system.mem_ctrls1.readPktSize::1                    0                       # Read request sizes (log2)
system.mem_ctrls1.readPktSize::2                    0                       # Read request sizes (log2)
system.mem_ctrls1.readPktSize::3                    0                       # Read request sizes (log2)
system.mem_ctrls1.readPktSize::4                    0                       # Read request sizes (log2)
system.mem_ctrls1.readPktSize::5                    0                       # Read request sizes (log2)
system.mem_ctrls1.readPktSize::6              7794482                       # Read request sizes (log2)
system.mem_ctrls1.writePktSize::0                   0                       # Write request sizes (log2)
system.mem_ctrls1.writePktSize::1                   0                       # Write request sizes (log2)
system.mem_ctrls1.writePktSize::2                   0                       # Write request sizes (log2)
system.mem_ctrls1.writePktSize::3                   0                       # Write request sizes (log2)
system.mem_ctrls1.writePktSize::4                   0                       # Write request sizes (log2)
system.mem_ctrls1.writePktSize::5                   0                       # Write request sizes (log2)
system.mem_ctrls1.writePktSize::6             2596975                       # Write request sizes (log2)
system.mem_ctrls1.rdQLenPdf::0                7387252                       # What read queue length does an incoming req see
system.mem_ctrls1.rdQLenPdf::1                 341912                       # What read queue length does an incoming req see
system.mem_ctrls1.rdQLenPdf::2                  53231                       # What read queue length does an incoming req see
system.mem_ctrls1.rdQLenPdf::3                   4916                       # What read queue length does an incoming req see
system.mem_ctrls1.rdQLenPdf::4                      1                       # What read queue length does an incoming req see
system.mem_ctrls1.rdQLenPdf::5                      0                       # What read queue length does an incoming req see
system.mem_ctrls1.rdQLenPdf::6                      0                       # What read queue length does an incoming req see
system.mem_ctrls1.rdQLenPdf::7                      0                       # What read queue length does an incoming req see
system.mem_ctrls1.rdQLenPdf::8                      0                       # What read queue length does an incoming req see
system.mem_ctrls1.rdQLenPdf::9                      0                       # What read queue length does an incoming req see
system.mem_ctrls1.rdQLenPdf::10                     0                       # What read queue length does an incoming req see
system.mem_ctrls1.rdQLenPdf::11                     0                       # What read queue length does an incoming req see
system.mem_ctrls1.rdQLenPdf::12                     0                       # What read queue length does an incoming req see
system.mem_ctrls1.rdQLenPdf::13                     0                       # What read queue length does an incoming req see
system.mem_ctrls1.rdQLenPdf::14                     0                       # What read queue length does an incoming req see
system.mem_ctrls1.rdQLenPdf::15                     0                       # What read queue length does an incoming req see
system.mem_ctrls1.rdQLenPdf::16                     0                       # What read queue length does an incoming req see
system.mem_ctrls1.rdQLenPdf::17                     0                       # What read queue length does an incoming req see
system.mem_ctrls1.rdQLenPdf::18                     0                       # What read queue length does an incoming req see
system.mem_ctrls1.rdQLenPdf::19                     0                       # What read queue length does an incoming req see
system.mem_ctrls1.rdQLenPdf::20                     0                       # What read queue length does an incoming req see
system.mem_ctrls1.rdQLenPdf::21                     0                       # What read queue length does an incoming req see
system.mem_ctrls1.rdQLenPdf::22                     0                       # What read queue length does an incoming req see
system.mem_ctrls1.rdQLenPdf::23                     0                       # What read queue length does an incoming req see
system.mem_ctrls1.rdQLenPdf::24                     0                       # What read queue length does an incoming req see
system.mem_ctrls1.rdQLenPdf::25                     0                       # What read queue length does an incoming req see
system.mem_ctrls1.rdQLenPdf::26                     0                       # What read queue length does an incoming req see
system.mem_ctrls1.rdQLenPdf::27                     0                       # What read queue length does an incoming req see
system.mem_ctrls1.rdQLenPdf::28                     0                       # What read queue length does an incoming req see
system.mem_ctrls1.rdQLenPdf::29                     0                       # What read queue length does an incoming req see
system.mem_ctrls1.rdQLenPdf::30                     0                       # What read queue length does an incoming req see
system.mem_ctrls1.rdQLenPdf::31                     0                       # What read queue length does an incoming req see
system.mem_ctrls1.wrQLenPdf::0                      2                       # What write queue length does an incoming req see
system.mem_ctrls1.wrQLenPdf::1                      2                       # What write queue length does an incoming req see
system.mem_ctrls1.wrQLenPdf::2                      2                       # What write queue length does an incoming req see
system.mem_ctrls1.wrQLenPdf::3                      2                       # What write queue length does an incoming req see
system.mem_ctrls1.wrQLenPdf::4                      2                       # What write queue length does an incoming req see
system.mem_ctrls1.wrQLenPdf::5                      2                       # What write queue length does an incoming req see
system.mem_ctrls1.wrQLenPdf::6                      2                       # What write queue length does an incoming req see
system.mem_ctrls1.wrQLenPdf::7                      2                       # What write queue length does an incoming req see
system.mem_ctrls1.wrQLenPdf::8                      2                       # What write queue length does an incoming req see
system.mem_ctrls1.wrQLenPdf::9                      2                       # What write queue length does an incoming req see
system.mem_ctrls1.wrQLenPdf::10                     2                       # What write queue length does an incoming req see
system.mem_ctrls1.wrQLenPdf::11                     2                       # What write queue length does an incoming req see
system.mem_ctrls1.wrQLenPdf::12                     2                       # What write queue length does an incoming req see
system.mem_ctrls1.wrQLenPdf::13                     2                       # What write queue length does an incoming req see
system.mem_ctrls1.wrQLenPdf::14                     2                       # What write queue length does an incoming req see
system.mem_ctrls1.wrQLenPdf::15                 96058                       # What write queue length does an incoming req see
system.mem_ctrls1.wrQLenPdf::16                100546                       # What write queue length does an incoming req see
system.mem_ctrls1.wrQLenPdf::17                144180                       # What write queue length does an incoming req see
system.mem_ctrls1.wrQLenPdf::18                149266                       # What write queue length does an incoming req see
system.mem_ctrls1.wrQLenPdf::19                150195                       # What write queue length does an incoming req see
system.mem_ctrls1.wrQLenPdf::20                150359                       # What write queue length does an incoming req see
system.mem_ctrls1.wrQLenPdf::21                150379                       # What write queue length does an incoming req see
system.mem_ctrls1.wrQLenPdf::22                150591                       # What write queue length does an incoming req see
system.mem_ctrls1.wrQLenPdf::23                150602                       # What write queue length does an incoming req see
system.mem_ctrls1.wrQLenPdf::24                150686                       # What write queue length does an incoming req see
system.mem_ctrls1.wrQLenPdf::25                152130                       # What write queue length does an incoming req see
system.mem_ctrls1.wrQLenPdf::26                151055                       # What write queue length does an incoming req see
system.mem_ctrls1.wrQLenPdf::27                150365                       # What write queue length does an incoming req see
system.mem_ctrls1.wrQLenPdf::28                150425                       # What write queue length does an incoming req see
system.mem_ctrls1.wrQLenPdf::29                150372                       # What write queue length does an incoming req see
system.mem_ctrls1.wrQLenPdf::30                150534                       # What write queue length does an incoming req see
system.mem_ctrls1.wrQLenPdf::31                149534                       # What write queue length does an incoming req see
system.mem_ctrls1.wrQLenPdf::32                149458                       # What write queue length does an incoming req see
system.mem_ctrls1.wrQLenPdf::33                   140                       # What write queue length does an incoming req see
system.mem_ctrls1.wrQLenPdf::34                    45                       # What write queue length does an incoming req see
system.mem_ctrls1.wrQLenPdf::35                    17                       # What write queue length does an incoming req see
system.mem_ctrls1.wrQLenPdf::36                     5                       # What write queue length does an incoming req see
system.mem_ctrls1.wrQLenPdf::37                     1                       # What write queue length does an incoming req see
system.mem_ctrls1.wrQLenPdf::38                     1                       # What write queue length does an incoming req see
system.mem_ctrls1.wrQLenPdf::39                     0                       # What write queue length does an incoming req see
system.mem_ctrls1.wrQLenPdf::40                     0                       # What write queue length does an incoming req see
system.mem_ctrls1.wrQLenPdf::41                     0                       # What write queue length does an incoming req see
system.mem_ctrls1.wrQLenPdf::42                     0                       # What write queue length does an incoming req see
system.mem_ctrls1.wrQLenPdf::43                     0                       # What write queue length does an incoming req see
system.mem_ctrls1.wrQLenPdf::44                     0                       # What write queue length does an incoming req see
system.mem_ctrls1.wrQLenPdf::45                     0                       # What write queue length does an incoming req see
system.mem_ctrls1.wrQLenPdf::46                     0                       # What write queue length does an incoming req see
system.mem_ctrls1.wrQLenPdf::47                     0                       # What write queue length does an incoming req see
system.mem_ctrls1.wrQLenPdf::48                     0                       # What write queue length does an incoming req see
system.mem_ctrls1.wrQLenPdf::49                     0                       # What write queue length does an incoming req see
system.mem_ctrls1.wrQLenPdf::50                     0                       # What write queue length does an incoming req see
system.mem_ctrls1.wrQLenPdf::51                     0                       # What write queue length does an incoming req see
system.mem_ctrls1.wrQLenPdf::52                     0                       # What write queue length does an incoming req see
system.mem_ctrls1.wrQLenPdf::53                     0                       # What write queue length does an incoming req see
system.mem_ctrls1.wrQLenPdf::54                     0                       # What write queue length does an incoming req see
system.mem_ctrls1.wrQLenPdf::55                     0                       # What write queue length does an incoming req see
system.mem_ctrls1.wrQLenPdf::56                     0                       # What write queue length does an incoming req see
system.mem_ctrls1.wrQLenPdf::57                     0                       # What write queue length does an incoming req see
system.mem_ctrls1.wrQLenPdf::58                     0                       # What write queue length does an incoming req see
system.mem_ctrls1.wrQLenPdf::59                     0                       # What write queue length does an incoming req see
system.mem_ctrls1.wrQLenPdf::60                     0                       # What write queue length does an incoming req see
system.mem_ctrls1.wrQLenPdf::61                     0                       # What write queue length does an incoming req see
system.mem_ctrls1.wrQLenPdf::62                     0                       # What write queue length does an incoming req see
system.mem_ctrls1.wrQLenPdf::63                     0                       # What write queue length does an incoming req see
system.mem_ctrls1.bytesPerActivate::samples      4651304                       # Bytes accessed per row activation
system.mem_ctrls1.bytesPerActivate::mean   142.883176                       # Bytes accessed per row activation
system.mem_ctrls1.bytesPerActivate::gmean    98.651748                       # Bytes accessed per row activation
system.mem_ctrls1.bytesPerActivate::stdev   184.194191                       # Bytes accessed per row activation
system.mem_ctrls1.bytesPerActivate::0-127      3053248     65.64%     65.64% # Bytes accessed per row activation
system.mem_ctrls1.bytesPerActivate::128-255       972803     20.91%     86.56% # Bytes accessed per row activation
system.mem_ctrls1.bytesPerActivate::256-383       243669      5.24%     91.80% # Bytes accessed per row activation
system.mem_ctrls1.bytesPerActivate::384-511       114383      2.46%     94.26% # Bytes accessed per row activation
system.mem_ctrls1.bytesPerActivate::512-639        60426      1.30%     95.55% # Bytes accessed per row activation
system.mem_ctrls1.bytesPerActivate::640-767        46061      0.99%     96.54% # Bytes accessed per row activation
system.mem_ctrls1.bytesPerActivate::768-895        46090      0.99%     97.54% # Bytes accessed per row activation
system.mem_ctrls1.bytesPerActivate::896-1023        33941      0.73%     98.27% # Bytes accessed per row activation
system.mem_ctrls1.bytesPerActivate::1024-1151        80683      1.73%    100.00% # Bytes accessed per row activation
system.mem_ctrls1.bytesPerActivate::total      4651304                       # Bytes accessed per row activation
system.mem_ctrls1.rdPerTurnAround::samples       149405                       # Reads before turning the bus around for writes
system.mem_ctrls1.rdPerTurnAround::mean     52.122158                       # Reads before turning the bus around for writes
system.mem_ctrls1.rdPerTurnAround::stdev   119.495079                       # Reads before turning the bus around for writes
system.mem_ctrls1.rdPerTurnAround::0-1023       149243     99.89%     99.89% # Reads before turning the bus around for writes
system.mem_ctrls1.rdPerTurnAround::1024-2047          107      0.07%     99.96% # Reads before turning the bus around for writes
system.mem_ctrls1.rdPerTurnAround::2048-3071           44      0.03%     99.99% # Reads before turning the bus around for writes
system.mem_ctrls1.rdPerTurnAround::3072-4095            9      0.01%    100.00% # Reads before turning the bus around for writes
system.mem_ctrls1.rdPerTurnAround::4096-5119            1      0.00%    100.00% # Reads before turning the bus around for writes
system.mem_ctrls1.rdPerTurnAround::30720-31743            1      0.00%    100.00% # Reads before turning the bus around for writes
system.mem_ctrls1.rdPerTurnAround::total       149405                       # Reads before turning the bus around for writes
system.mem_ctrls1.wrPerTurnAround::samples       149405                       # Writes before turning the bus around for reads
system.mem_ctrls1.wrPerTurnAround::mean     17.381995                       # Writes before turning the bus around for reads
system.mem_ctrls1.wrPerTurnAround::gmean    17.351340                       # Writes before turning the bus around for reads
system.mem_ctrls1.wrPerTurnAround::stdev     1.025069                       # Writes before turning the bus around for reads
system.mem_ctrls1.wrPerTurnAround::16           49265     32.97%     32.97% # Writes before turning the bus around for reads
system.mem_ctrls1.wrPerTurnAround::17            3600      2.41%     35.38% # Writes before turning the bus around for reads
system.mem_ctrls1.wrPerTurnAround::18           88087     58.96%     94.34% # Writes before turning the bus around for reads
system.mem_ctrls1.wrPerTurnAround::19            7415      4.96%     99.31% # Writes before turning the bus around for reads
system.mem_ctrls1.wrPerTurnAround::20             825      0.55%     99.86% # Writes before turning the bus around for reads
system.mem_ctrls1.wrPerTurnAround::21             152      0.10%     99.96% # Writes before turning the bus around for reads
system.mem_ctrls1.wrPerTurnAround::22              42      0.03%     99.99% # Writes before turning the bus around for reads
system.mem_ctrls1.wrPerTurnAround::23              12      0.01%    100.00% # Writes before turning the bus around for reads
system.mem_ctrls1.wrPerTurnAround::24               3      0.00%    100.00% # Writes before turning the bus around for reads
system.mem_ctrls1.wrPerTurnAround::25               3      0.00%    100.00% # Writes before turning the bus around for reads
system.mem_ctrls1.wrPerTurnAround::27               1      0.00%    100.00% # Writes before turning the bus around for reads
system.mem_ctrls1.wrPerTurnAround::total       149405                       # Writes before turning the bus around for reads
system.mem_ctrls1.totQLat                146131611945                       # Total ticks spent queuing
system.mem_ctrls1.totMemAccLat           292143711945                       # Total ticks spent from burst creation until serviced by the DRAM
system.mem_ctrls1.totBusLat               38936560000                       # Total ticks spent in databus transfers
system.mem_ctrls1.avgQLat                    18765.35                       # Average queueing delay per DRAM burst
system.mem_ctrls1.avgBusLat                   5000.00                       # Average bus latency per DRAM burst
system.mem_ctrls1.avgMemAccLat               37515.35                       # Average memory access latency per DRAM burst
system.mem_ctrls1.avgRdBW                      169.77                       # Average DRAM read bandwidth in MiByte/s
system.mem_ctrls1.avgWrBW                       56.62                       # Average achieved write bandwidth in MiByte/s
system.mem_ctrls1.avgRdBWSys                   169.92                       # Average system read bandwidth in MiByte/s
system.mem_ctrls1.avgWrBWSys                    56.62                       # Average system write bandwidth in MiByte/s
system.mem_ctrls1.peakBW                     12800.00                       # Theoretical peak bandwidth in MiByte/s
system.mem_ctrls1.busUtil                        1.77                       # Data bus utilization in percentage
system.mem_ctrls1.busUtilRead                    1.33                       # Data bus utilization in percentage for reads
system.mem_ctrls1.busUtilWrite                   0.44                       # Data bus utilization in percentage for writes
system.mem_ctrls1.avgRdQLen                      1.03                       # Average read queue length when enqueuing
system.mem_ctrls1.avgWrQLen                     24.70                       # Average write queue length when enqueuing
system.mem_ctrls1.readRowHits                 5106968                       # Number of row buffer hits during reads
system.mem_ctrls1.writeRowHits                 625995                       # Number of row buffer hits during writes
system.mem_ctrls1.readRowHitRate                65.58                       # Row buffer hit rate for reads
system.mem_ctrls1.writeRowHitRate               24.10                       # Row buffer hit rate for writes
system.mem_ctrls1.avgGap                    282510.50                       # Average gap between requests
system.mem_ctrls1.pageHitRate                   55.21                       # Row buffer hit rate, read and write combined
system.mem_ctrls1_0.actEnergy             16656998820                       # Energy for activate commands per rank (pJ)
system.mem_ctrls1_0.preEnergy              8853404835                       # Energy for precharge commands per rank (pJ)
system.mem_ctrls1_0.readEnergy            28089316920                       # Energy for read commands per rank (pJ)
system.mem_ctrls1_0.writeEnergy            6822174600                       # Energy for write commands per rank (pJ)
system.mem_ctrls1_0.refreshEnergy        222630598320.000061                       # Energy for refresh commands per rank (pJ)
system.mem_ctrls1_0.actBackEnergy        149914714470                       # Energy for active background per rank (pJ)
system.mem_ctrls1_0.preBackEnergy          6039825600                       # Energy for precharge background per rank (pJ)
system.mem_ctrls1_0.actPowerDownEnergy   944046380400                       # Energy for active power-down per rank (pJ)
system.mem_ctrls1_0.prePowerDownEnergy   124524768960                       # Energy for precharge power-down per rank (pJ)
system.mem_ctrls1_0.selfRefreshEnergy     53404787955                       # Energy for self refresh per rank (pJ)
system.mem_ctrls1_0.totalEnergy          1561070960880                       # Total energy per rank (pJ)
system.mem_ctrls1_0.averagePower           531.754982                       # Core power per rank (mW)
system.mem_ctrls1_0.totalIdleTime        2591017474537                       # Total Idle time Per DRAM Rank
system.mem_ctrls1_0.memoryStateTime::IDLE   5158209995                       # Time in different power states
system.mem_ctrls1_0.memoryStateTime::REF  94253374000                       # Time in different power states
system.mem_ctrls1_0.memoryStateTime::SREF 196450702376                       # Time in different power states
system.mem_ctrls1_0.memoryStateTime::PRE_PDN 324287105901                       # Time in different power states
system.mem_ctrls1_0.memoryStateTime::ACT 245266852678                       # Time in different power states
system.mem_ctrls1_0.memoryStateTime::ACT_PDN 2070279700137                       # Time in different power states
system.mem_ctrls1_1.actEnergy             16553326020                       # Energy for activate commands per rank (pJ)
system.mem_ctrls1_1.preEnergy              8798293845                       # Energy for precharge commands per rank (pJ)
system.mem_ctrls1_1.readEnergy            27512090760                       # Energy for read commands per rank (pJ)
system.mem_ctrls1_1.writeEnergy            6733940940                       # Energy for write commands per rank (pJ)
system.mem_ctrls1_1.refreshEnergy        221554363680.000061                       # Energy for refresh commands per rank (pJ)
system.mem_ctrls1_1.actBackEnergy        149584337340                       # Energy for active background per rank (pJ)
system.mem_ctrls1_1.preBackEnergy          6074433600                       # Energy for precharge background per rank (pJ)
system.mem_ctrls1_1.actPowerDownEnergy   934233648000                       # Energy for active power-down per rank (pJ)
system.mem_ctrls1_1.prePowerDownEnergy   125246228160                       # Energy for precharge power-down per rank (pJ)
system.mem_ctrls1_1.selfRefreshEnergy     58773268410                       # Energy for self refresh per rank (pJ)
system.mem_ctrls1_1.totalEnergy          1555139480685                       # Total energy per rank (pJ)
system.mem_ctrls1_1.averagePower           529.734512                       # Core power per rank (mW)
system.mem_ctrls1_1.totalIdleTime        2591679820994                       # Total Idle time Per DRAM Rank
system.mem_ctrls1_1.memoryStateTime::IDLE   5374123540                       # Time in different power states
system.mem_ctrls1_1.memoryStateTime::REF  93802872000                       # Time in different power states
system.mem_ctrls1_1.memoryStateTime::SREF 216753178477                       # Time in different power states
system.mem_ctrls1_1.memoryStateTime::PRE_PDN 326166933922                       # Time in different power states
system.mem_ctrls1_1.memoryStateTime::ACT 244839128553                       # Time in different power states
system.mem_ctrls1_1.memoryStateTime::ACT_PDN 2048759708595                       # Time in different power states
system.pwrStateResidencyTicks::UNDEFINED 72965668526433                       # Cumulative time (in ticks) in various power states
system.cpu.branchPred.lookups                       1                       # Number of BP lookups
system.cpu.branchPred.condPredicted                 1                       # Number of conditional branches predicted
system.cpu.branchPred.condIncorrect                 0                       # Number of conditional branches incorrect
system.cpu.branchPred.BTBLookups                    0                       # Number of BTB lookups
system.cpu.branchPred.BTBHits                       0                       # Number of BTB hits
system.cpu.branchPred.BTBCorrect                    0                       # Number of correct BTB predictions (this stat may not work properly.
system.cpu.branchPred.BTBHitPct                   nan                       # BTB Hit Percentage
system.cpu.branchPred.usedRAS                       0                       # Number of times the RAS was used to get a target.
system.cpu.branchPred.RASInCorrect                  0                       # Number of incorrect RAS predictions.
system.cpu.branchPred.indirectLookups               0                       # Number of indirect predictor lookups.
system.cpu.branchPred.indirectHits                  0                       # Number of indirect target hits.
system.cpu.branchPred.indirectMisses                0                       # Number of indirect misses.
system.cpu.branchPredindirectMispredicted            0                       # Number of mispredicted indirect branches.
system.cpu_voltage_domain.voltage                   1                       # Voltage in Volts
system.cpu_clk_domain.clock                       333                       # Clock period in ticks
system.cpu.dtb.fetch_hits                           0                       # ITB hits
system.cpu.dtb.fetch_misses                         0                       # ITB misses
system.cpu.dtb.fetch_acv                            0                       # ITB acv
system.cpu.dtb.fetch_accesses                       0                       # ITB accesses
system.cpu.dtb.read_hits                            2                       # DTB read hits
system.cpu.dtb.read_misses                          0                       # DTB read misses
system.cpu.dtb.read_acv                             0                       # DTB read access violations
system.cpu.dtb.read_accesses                        2                       # DTB read accesses
system.cpu.dtb.write_hits                           0                       # DTB write hits
system.cpu.dtb.write_misses                         0                       # DTB write misses
system.cpu.dtb.write_acv                            0                       # DTB write access violations
system.cpu.dtb.write_accesses                       0                       # DTB write accesses
system.cpu.dtb.data_hits                            2                       # DTB hits
system.cpu.dtb.data_misses                          0                       # DTB misses
system.cpu.dtb.data_acv                             0                       # DTB access violations
system.cpu.dtb.data_accesses                        2                       # DTB accesses
system.cpu.itb.fetch_hits                           3                       # ITB hits
system.cpu.itb.fetch_misses                         0                       # ITB misses
system.cpu.itb.fetch_acv                            0                       # ITB acv
system.cpu.itb.fetch_accesses                       3                       # ITB accesses
system.cpu.itb.read_hits                            0                       # DTB read hits
system.cpu.itb.read_misses                          0                       # DTB read misses
system.cpu.itb.read_acv                             0                       # DTB read access violations
system.cpu.itb.read_accesses                        0                       # DTB read accesses
system.cpu.itb.write_hits                           0                       # DTB write hits
system.cpu.itb.write_misses                         0                       # DTB write misses
system.cpu.itb.write_acv                            0                       # DTB write access violations
system.cpu.itb.write_accesses                       0                       # DTB write accesses
system.cpu.itb.data_hits                            0                       # DTB hits
system.cpu.itb.data_misses                          0                       # DTB misses
system.cpu.itb.data_acv                             0                       # DTB access violations
system.cpu.itb.data_accesses                        0                       # DTB accesses
system.cpu.workload.num_syscalls                    5                       # Number of system calls
system.cpu.pwrStateResidencyTicks::ON    2935695945087                       # Cumulative time (in ticks) in various power states
system.cpu.numCycles                              368                       # number of cpu cycles simulated
system.cpu.numWorkItemsStarted                      0                       # number of work items this cpu started
system.cpu.numWorkItemsCompleted                    0                       # number of work items this cpu completed
system.cpu.fetch.icacheStallCycles                 18                       # Number of cycles fetch is stalled on an Icache miss
system.cpu.fetch.Insts                             10                       # Number of instructions fetch has processed
system.cpu.fetch.Branches                           1                       # Number of branches that fetch encountered
system.cpu.fetch.Cycles                             2                       # Number of cycles fetch has run and was not squashing or blocked
system.cpu.fetch.SquashCycles                       3                       # Number of cycles fetch has spent squashing
system.cpu.fetch.PendingDrainCycles                 3                       # Number of cycles fetch has spent waiting on pipes to drain
system.cpu.fetch.CacheLines                         3                       # Number of cache lines fetched
system.cpu.fetch.IcacheSquashes                     2                       # Number of outstanding Icache misses that were squashed
[...]
system.switch_cpus_1.iq.int_inst_queue_wakeup_accesses    196676210                       # Number of integer instruction queue wakeup accesses
system.switch_cpus_1.iq.fp_inst_queue_reads    132637923                       # Number of floating instruction queue reads
system.switch_cpus_1.iq.fp_inst_queue_writes     84803671                       # Number of floating instruction queue writes
system.switch_cpus_1.iq.fp_inst_queue_wakeup_accesses     59325847                       # Number of floating instruction queue wakeup accesses
system.switch_cpus_1.iq.int_alu_accesses    212721724                       # Number of integer alu accesses
system.switch_cpus_1.iq.fp_alu_accesses      67861971                       # Number of floating point alu accesses
system.switch_cpus_1.iew.lsq.thread0.forwLoads      2268279                       # Number of loads that had data forwarded from stores
system.switch_cpus_1.iew.lsq.thread0.invAddrLoads            0                       # Number of loads ignored due to an invalid address
system.switch_cpus_1.iew.lsq.thread0.squashedLoads     21541577                       # Number of loads squashed
system.switch_cpus_1.iew.lsq.thread0.ignoredResponses        14499                       # Number of memory responses ignored because the instruction is squashed
system.switch_cpus_1.iew.lsq.thread0.memOrderViolation         8379                       # Number of memory ordering violations
system.switch_cpus_1.iew.lsq.thread0.squashedStores      7144095                       # Number of stores squashed
system.switch_cpus_1.iew.lsq.thread0.invAddrSwpfs            0                       # Number of software prefetches ignored due to an invalid address
system.switch_cpus_1.iew.lsq.thread0.blockedLoads            0                       # Number of blocked loads due to partial load-store forwarding
system.switch_cpus_1.iew.lsq.thread0.rescheduledLoads         6031                       # Number of loads that were rescheduled
system.switch_cpus_1.iew.lsq.thread0.cacheBlocked     12700323                       # Number of times an access to memory failed due to the cache being blocked
system.switch_cpus_1.iew.iewIdleCycles              0                       # Number of cycles IEW is idle
system.switch_cpus_1.iew.iewSquashCycles      1485618                       # Number of cycles IEW is squashing
system.switch_cpus_1.iew.iewBlockCycles     134768389                       # Number of cycles IEW is blocking
system.switch_cpus_1.iew.iewUnblockCycles     60772584                       # Number of cycles IEW is unblocking
system.switch_cpus_1.iew.iewDispatchedInsts    292361488                       # Number of instructions dispatched to IQ
system.switch_cpus_1.iew.iewDispSquashedInsts       150070                       # Number of squashed instructions skipped by dispatch
system.switch_cpus_1.iew.iewDispLoadInsts     61213296                       # Number of dispatched load instructions
system.switch_cpus_1.iew.iewDispStoreInsts     19135134                       # Number of dispatched store instructions
system.switch_cpus_1.iew.iewDispNonSpecInsts          205                       # Number of dispatched non-speculative instructions
system.switch_cpus_1.iew.iewIQFullEvents      1006938                       # Number of times the IQ has become full, causing a stall
system.switch_cpus_1.iew.iewLSQFullEvents     59230236                       # Number of times the LSQ has become full, causing a stall
system.switch_cpus_1.iew.memOrderViolationEvents         8379                       # Number of memory order violations
system.switch_cpus_1.iew.predictedTakenIncorrect       822880                       # Number of branches that were predicted taken incorrectly
system.switch_cpus_1.iew.predictedNotTakenIncorrect       564498                       # Number of branches that were predicted not taken incorrectly
system.switch_cpus_1.iew.branchMispredicts      1387378                       # Number of branch mispredicts detected at execute
system.switch_cpus_1.iew.iewExecutedInsts    271992129                       # Number of executed instructions
system.switch_cpus_1.iew.iewExecLoadInsts     68187335                       # Number of load instructions executed
system.switch_cpus_1.iew.iewExecSquashedInsts      1773949                       # Number of squashed instructions skipped in execute
system.switch_cpus_1.iew.exec_swp                   0                       # number of swp insts executed
system.switch_cpus_1.iew.exec_nop             1880263                       # number of nop insts executed
system.switch_cpus_1.iew.exec_refs           83890788                       # number of memory reference insts executed
system.switch_cpus_1.iew.exec_branches       34696092                       # Number of branches executed
system.switch_cpus_1.iew.exec_stores         15703453                       # Number of stores executed
system.switch_cpus_1.iew.exec_rate           0.468282                       # Inst execution rate
system.switch_cpus_1.iew.wb_sent            257983949                       # cumulative count of insts sent to commit
system.switch_cpus_1.iew.wb_count           256002057                       # cumulative count of insts written-back
system.switch_cpus_1.iew.wb_producers       153707015                       # num instructions producing a value
system.switch_cpus_1.iew.wb_consumers       189517029                       # num instructions consuming a value
system.switch_cpus_1.iew.wb_rate             0.440753                       # insts written-back per cycle
system.switch_cpus_1.iew.wb_fanout           0.811046                       # average fanout of values written-back
system.switch_cpus_1.commit.commitSquashedInsts     87019364                       # The number of squashed insts skipped by commit
system.switch_cpus_1.commit.commitNonSpecStalls          204                       # The number of times commit has been forced to stall to communicate backwards
system.switch_cpus_1.commit.branchMispredicts      1112923                       # The number of times a branch was mispredicted
system.switch_cpus_1.commit.committed_per_cycle::samples    568528178                       # Number of insts commited each cycle
system.switch_cpus_1.commit.committed_per_cycle::mean     0.353929                       # Number of insts commited each cycle
system.switch_cpus_1.commit.committed_per_cycle::stdev     1.532674                       # Number of insts commited each cycle
system.switch_cpus_1.commit.committed_per_cycle::underflows            0      0.00%      0.00% # Number of insts commited each cycle
system.switch_cpus_1.commit.committed_per_cycle::0    529590960     93.15%     93.15% # Number of insts commited each cycle
system.switch_cpus_1.commit.committed_per_cycle::1      9154964      1.61%     94.76% # Number of insts commited each cycle
system.switch_cpus_1.commit.committed_per_cycle::2      3980663      0.70%     95.46% # Number of insts commited each cycle
system.switch_cpus_1.commit.committed_per_cycle::3      1837748      0.32%     95.78% # Number of insts commited each cycle
system.switch_cpus_1.commit.committed_per_cycle::4      1307910      0.23%     96.01% # Number of insts commited each cycle
system.switch_cpus_1.commit.committed_per_cycle::5      1851750      0.33%     96.34% # Number of insts commited each cycle
system.switch_cpus_1.commit.committed_per_cycle::6       730476      0.13%     96.47% # Number of insts commited each cycle
system.switch_cpus_1.commit.committed_per_cycle::7       874085      0.15%     96.62% # Number of insts commited each cycle
system.switch_cpus_1.commit.committed_per_cycle::8     19199622      3.38%    100.00% # Number of insts commited each cycle
system.switch_cpus_1.commit.committed_per_cycle::overflows            0      0.00%    100.00% # Number of insts commited each cycle
system.switch_cpus_1.commit.committed_per_cycle::min_value            0                       # Number of insts commited each cycle
system.switch_cpus_1.commit.committed_per_cycle::max_value            8                       # Number of insts commited each cycle
system.switch_cpus_1.commit.committed_per_cycle::total    568528178                       # Number of insts commited each cycle
system.switch_cpus_1.commit.committedInsts    201218351                       # Number of instructions committed
system.switch_cpus_1.commit.committedOps    201218351                       # Number of ops (including micro ops) committed
system.switch_cpus_1.commit.swp_count               0                       # Number of s/w prefetches committed
system.switch_cpus_1.commit.refs             51662751                       # Number of memory references committed
system.switch_cpus_1.commit.loads            39671715                       # Number of loads committed
system.switch_cpus_1.commit.membars               102                       # Number of memory barriers committed
system.switch_cpus_1.commit.branches         28384894                       # Number of branches committed
system.switch_cpus_1.commit.fp_insts         51627815                       # Number of committed floating point instructions.
system.switch_cpus_1.commit.int_insts       168624395                       # Number of committed integer instructions.
system.switch_cpus_1.commit.function_calls       460018                       # Number of function calls committed.
system.switch_cpus_1.commit.op_class_0::No_OpClass      1218344      0.61%      0.61% # Class of committed instruction
system.switch_cpus_1.commit.op_class_0::IntAlu    117264314     58.28%     58.88% # Class of committed instruction
system.switch_cpus_1.commit.op_class_0::IntMult       166526      0.08%     58.97% # Class of committed instruction
system.switch_cpus_1.commit.op_class_0::IntDiv            0      0.00%     58.97% # Class of committed instruction
system.switch_cpus_1.commit.op_class_0::FloatAdd     18908760      9.40%     68.36% # Class of committed instruction
system.switch_cpus_1.commit.op_class_0::FloatCmp     10580725      5.26%     73.62% # Class of committed instruction
system.switch_cpus_1.commit.op_class_0::FloatCvt         1376      0.00%     73.62% # Class of committed instruction
system.switch_cpus_1.commit.op_class_0::FloatMult       880508      0.44%     74.06% # Class of committed instruction
system.switch_cpus_1.commit.op_class_0::FloatMultAcc            0      0.00%     74.06% # Class of committed instruction
system.switch_cpus_1.commit.op_class_0::FloatDiv       534945      0.27%     74.32% # Class of committed instruction
system.switch_cpus_1.commit.op_class_0::FloatMisc            0      0.00%     74.32% # Class of committed instruction
system.switch_cpus_1.commit.op_class_0::FloatSqrt            0      0.00%     74.32% # Class of committed instruction
system.switch_cpus_1.commit.op_class_0::SimdAdd            0      0.00%     74.32% # Class of committed instruction
system.switch_cpus_1.commit.op_class_0::SimdAddAcc            0      0.00%     74.32% # Class of committed instruction
system.switch_cpus_1.commit.op_class_0::SimdAlu            0      0.00%     74.32% # Class of committed instruction
system.switch_cpus_1.commit.op_class_0::SimdCmp            0      0.00%     74.32% # Class of committed instruction
system.switch_cpus_1.commit.op_class_0::SimdCvt            0      0.00%     74.32% # Class of committed instruction
system.switch_cpus_1.commit.op_class_0::SimdMisc            0      0.00%     74.32% # Class of committed instruction
system.switch_cpus_1.commit.op_class_0::SimdMult            0      0.00%     74.32% # Class of committed instruction
system.switch_cpus_1.commit.op_class_0::SimdMultAcc            0      0.00%     74.32% # Class of committed instruction
system.switch_cpus_1.commit.op_class_0::SimdShift            0      0.00%     74.32% # Class of committed instruction
system.switch_cpus_1.commit.op_class_0::SimdShiftAcc            0      0.00%     74.32% # Class of committed instruction
system.switch_cpus_1.commit.op_class_0::SimdSqrt            0      0.00%     74.32% # Class of committed instruction
system.switch_cpus_1.commit.op_class_0::SimdFloatAdd            0      0.00%     74.32% # Class of committed instruction
system.switch_cpus_1.commit.op_class_0::SimdFloatAlu            0      0.00%     74.32% # Class of committed instruction
system.switch_cpus_1.commit.op_class_0::SimdFloatCmp            0      0.00%     74.32% # Class of committed instruction
system.switch_cpus_1.commit.op_class_0::SimdFloatCvt            0      0.00%     74.32% # Class of committed instruction
system.switch_cpus_1.commit.op_class_0::SimdFloatDiv            0      0.00%     74.32% # Class of committed instruction
system.switch_cpus_1.commit.op_class_0::SimdFloatMisc            0      0.00%     74.32% # Class of committed instruction
system.switch_cpus_1.commit.op_class_0::SimdFloatMult            0      0.00%     74.32% # Class of committed instruction
system.switch_cpus_1.commit.op_class_0::SimdFloatMultAcc            0      0.00%     74.32% # Class of committed instruction
system.switch_cpus_1.commit.op_class_0::SimdFloatSqrt            0      0.00%     74.32% # Class of committed instruction
system.switch_cpus_1.commit.op_class_0::MemRead     20146503     10.01%     84.34% # Class of committed instruction
system.switch_cpus_1.commit.op_class_0::MemWrite     10794849      5.36%     89.70% # Class of committed instruction
system.switch_cpus_1.commit.op_class_0::FloatMemRead     19525314      9.70%     99.41% # Class of committed instruction
system.switch_cpus_1.commit.op_class_0::FloatMemWrite      1196187      0.59%    100.00% # Class of committed instruction
system.switch_cpus_1.commit.op_class_0::IprAccess            0      0.00%    100.00% # Class of committed instruction
system.switch_cpus_1.commit.op_class_0::InstPrefetch            0      0.00%    100.00% # Class of committed instruction
system.switch_cpus_1.commit.op_class_0::total    201218351                       # Class of committed instruction
system.switch_cpus_1.commit.bw_lim_events     19199622                       # number cycles where commit BW limit reached
system.switch_cpus_1.rob.rob_reads          832801212                       # The number of ROB reads
system.switch_cpus_1.rob.rob_writes         588511891                       # The number of ROB writes
system.switch_cpus_1.timesIdled                  2186                       # Number of times that the entire CPU went into an idle state and unscheduled itself
system.switch_cpus_1.idleCycles                286133                       # Total number of cycles that the CPU has spent unscheduled due to idling
system.switch_cpus_1.committedInsts         200000007                       # Number of Instructions Simulated
system.switch_cpus_1.committedOps           200000007                       # Number of Ops (including micro ops) Simulated
system.switch_cpus_1.cpi                     2.904146                       # CPI: Cycles Per Instruction
system.switch_cpus_1.cpi_total               2.904146                       # CPI: Total CPI of All Threads
system.switch_cpus_1.ipc                     0.344335                       # IPC: Instructions Per Cycle
system.switch_cpus_1.ipc_total               0.344335                       # IPC: Total IPC of All Threads
system.switch_cpus_1.int_regfile_reads      354399799                       # number of integer regfile reads
system.switch_cpus_1.int_regfile_writes     160525775                       # number of integer regfile writes
system.switch_cpus_1.fp_regfile_reads        59494970                       # number of floating regfile reads
system.switch_cpus_1.fp_regfile_writes       46517894                       # number of floating regfile writes
system.switch_cpus_1.misc_regfile_reads           243                       # number of misc regfile reads
system.switch_cpus_1.misc_regfile_writes          204                       # number of misc regfile writes
system.tol3bus.snoop_filter.tot_requests     51975836                       # Total number of requests made to the snoop filter.
system.tol3bus.snoop_filter.hit_single_requests     25985706                       # Number of requests hitting in the snoop filter with a single holder of the requested data.
system.tol3bus.snoop_filter.hit_multi_requests            0                       # Number of requests hitting in the snoop filter with multiple (>1) holders of the requested data.
system.tol3bus.snoop_filter.tot_snoops         467480                       # Total number of snoops made to the snoop filter.
system.tol3bus.snoop_filter.hit_single_snoops       467480                       # Number of snoops hitting in the snoop filter with a single holder of the requested data.
system.tol3bus.snoop_filter.hit_multi_snoops            0                       # Number of snoops hitting in the snoop filter with multiple (>1) holders of the requested data.
system.tol3bus.pwrStateResidencyTicks::UNDEFINED 72965668526433                       # Cumulative time (in ticks) in various power states
system.tol3bus.trans_dist::ReadResp          19570255                       # Transaction distribution
system.tol3bus.trans_dist::WritebackDirty     17864891                       # Transaction distribution
system.tol3bus.trans_dist::CleanEvict        23670993                       # Transaction distribution
system.tol3bus.trans_dist::UpgradeReq              28                       # Transaction distribution
system.tol3bus.trans_dist::UpgradeResp             28                       # Transaction distribution
system.tol3bus.trans_dist::ReadExReq          6419875                       # Transaction distribution
system.tol3bus.trans_dist::ReadExResp         6419875                       # Transaction distribution
system.tol3bus.trans_dist::ReadSharedReq     19570255                       # Transaction distribution
system.tol3bus.pkt_count_system.cpu.l2.mem_side::system.l3.cpu_side     77965994                       # Packet count per connected master and slave (bytes)
system.tol3bus.pkt_size_system.cpu.l2.mem_side::system.l3.cpu_side   2474328960                       # Cumulative packet size per connected master and slave (bytes)
system.tol3bus.snoops                        15550206                       # Total snoops (count)
system.tol3bus.snoopTraffic                 332392384                       # Total snoop traffic (bytes)
system.tol3bus.snoop_fanout::samples         41540364                       # Request fanout histogram
system.tol3bus.snoop_fanout::mean            0.011254                       # Request fanout histogram
system.tol3bus.snoop_fanout::stdev           0.105485                       # Request fanout histogram
system.tol3bus.snoop_fanout::underflows             0      0.00%      0.00% # Request fanout histogram
system.tol3bus.snoop_fanout::0               41072884     98.87%     98.87% # Request fanout histogram
system.tol3bus.snoop_fanout::1                 467480      1.13%    100.00% # Request fanout histogram
system.tol3bus.snoop_fanout::overflows              0      0.00%    100.00% # Request fanout histogram
system.tol3bus.snoop_fanout::min_value              0                       # Request fanout histogram
system.tol3bus.snoop_fanout::max_value              1                       # Request fanout histogram
system.tol3bus.snoop_fanout::total           41540364                       # Request fanout histogram
system.tol3bus.reqLayer0.occupancy        21527482968                       # Layer occupancy (ticks)
system.tol3bus.reqLayer0.utilization              0.7                       # Layer utilization (%)
system.tol3bus.respLayer0.occupancy       17309435904                       # Layer occupancy (ticks)
system.tol3bus.respLayer0.utilization             0.6                       # Layer utilization (%)

---------- End Simulation Statistics   ----------
