
---------- Begin Simulation Statistics ----------
sim_seconds                                  5.241850                       # Number of seconds simulated
sim_ticks                                5241849523047                       # Number of ticks simulated
final_tick                               132194846047779                       # Number of ticks from beginning of simulation (restored from checkpoints and never reset)
sim_freq                                 1000000000000                       # Frequency of simulated ticks
host_inst_rate                                  73235                       # Simulator instruction rate (inst/s)
host_op_rate                                    73235                       # Simulator op (including micro ops) rate (op/s)
host_tick_rate                              191942321                       # Simulator tick rate (ticks/s)
host_mem_usage                                2495348                       # Number of bytes of host memory used
host_seconds                                 27309.50                       # Real time elapsed on the host
sim_insts                                  2000000007                       # Number of instructions simulated
sim_ops                                    2000000007                       # Number of ops (including micro ops) simulated
system.voltage_domain.voltage                       1                       # Voltage in Volts
system.clk_domain.clock                          1000                       # Clock period in ticks
system.mem_ctrls0.pwrStateResidencyTicks::UNDEFINED 132194846047779                       # Cumulative time (in ticks) in various power states
system.mem_ctrls0.bytes_read::cpu.inst            128                       # Number of bytes read from this memory
system.mem_ctrls0.bytes_read::switch_cpus.inst        25408                       # Number of bytes read from this memory
system.mem_ctrls0.bytes_read::switch_cpus.data    418604992                       # Number of bytes read from this memory
system.mem_ctrls0.bytes_read::switch_cpus_1.inst        21696                       # Number of bytes read from this memory
system.mem_ctrls0.bytes_read::switch_cpus_1.data    468366400                       # Number of bytes read from this memory
system.mem_ctrls0.bytes_read::total         887018624                       # Number of bytes read from this memory
system.mem_ctrls0.bytes_inst_read::cpu.inst          128                       # Number of instructions bytes read from this memory
system.mem_ctrls0.bytes_inst_read::switch_cpus.inst        25408                       # Number of instructions bytes read from this memory
system.mem_ctrls0.bytes_inst_read::switch_cpus_1.inst        21696                       # Number of instructions bytes read from this memory
system.mem_ctrls0.bytes_inst_read::total        47232                       # Number of instructions bytes read from this memory
system.mem_ctrls0.bytes_written::writebacks    358529664                       # Number of bytes written to this memory
system.mem_ctrls0.bytes_written::total      358529664                       # Number of bytes written to this memory
system.mem_ctrls0.num_reads::cpu.inst               2                       # Number of read requests responded to by this memory
system.mem_ctrls0.num_reads::switch_cpus.inst          397                       # Number of read requests responded to by this memory
system.mem_ctrls0.num_reads::switch_cpus.data      6540703                       # Number of read requests responded to by this memory
system.mem_ctrls0.num_reads::switch_cpus_1.inst          339                       # Number of read requests responded to by this memory
system.mem_ctrls0.num_reads::switch_cpus_1.data      7318225                       # Number of read requests responded to by this memory
system.mem_ctrls0.num_reads::total           13859666                       # Number of read requests responded to by this memory
system.mem_ctrls0.num_writes::writebacks      5602026                       # Number of write requests responded to by this memory
system.mem_ctrls0.num_writes::total           5602026                       # Number of write requests responded to by this memory
system.mem_ctrls0.bw_read::cpu.inst                24                       # Total read bandwidth from this memory (bytes/s)
system.mem_ctrls0.bw_read::switch_cpus.inst         4847                       # Total read bandwidth from this memory (bytes/s)
system.mem_ctrls0.bw_read::switch_cpus.data     79858262                       # Total read bandwidth from this memory (bytes/s)
system.mem_ctrls0.bw_read::switch_cpus_1.inst         4139                       # Total read bandwidth from this memory (bytes/s)
system.mem_ctrls0.bw_read::switch_cpus_1.data     89351363                       # Total read bandwidth from this memory (bytes/s)
system.mem_ctrls0.bw_read::total            169218636                       # Total read bandwidth from this memory (bytes/s)
system.mem_ctrls0.bw_inst_read::cpu.inst           24                       # Instruction read bandwidth from this memory (bytes/s)
system.mem_ctrls0.bw_inst_read::switch_cpus.inst         4847                       # Instruction read bandwidth from this memory (bytes/s)
system.mem_ctrls0.bw_inst_read::switch_cpus_1.inst         4139                       # Instruction read bandwidth from this memory (bytes/s)
system.mem_ctrls0.bw_inst_read::total            9011                       # Instruction read bandwidth from this memory (bytes/s)
system.mem_ctrls0.bw_write::writebacks       68397550                       # Write bandwidth from this memory (bytes/s)
system.mem_ctrls0.bw_write::total            68397550                       # Write bandwidth from this memory (bytes/s)
system.mem_ctrls0.bw_total::writebacks       68397550                       # Total bandwidth to/from this memory (bytes/s)
system.mem_ctrls0.bw_total::cpu.inst               24                       # Total bandwidth to/from this memory (bytes/s)
system.mem_ctrls0.bw_total::switch_cpus.inst         4847                       # Total bandwidth to/from this memory (bytes/s)
system.mem_ctrls0.bw_total::switch_cpus.data     79858262                       # Total bandwidth to/from this memory (bytes/s)
system.mem_ctrls0.bw_total::switch_cpus_1.inst         4139                       # Total bandwidth to/from this memory (bytes/s)
system.mem_ctrls0.bw_total::switch_cpus_1.data     89351363                       # Total bandwidth to/from this memory (bytes/s)
system.mem_ctrls0.bw_total::total           237616185                       # Total bandwidth to/from this memory (bytes/s)
system.mem_ctrls0.readReqs                   13859666                       # Number of read requests accepted
system.mem_ctrls0.writeReqs                   5602026                       # Number of write requests accepted
system.mem_ctrls0.readBursts                 13859666                       # Number of DRAM read bursts, including those serviced by the write queue
system.mem_ctrls0.writeBursts                 5602026                       # Number of DRAM write bursts, including those merged in the write queue
system.mem_ctrls0.bytesReadDRAM             886381248                       # Total number of bytes read from DRAM
system.mem_ctrls0.bytesReadWrQ                 637376                       # Total number of bytes read from write queue
system.mem_ctrls0.bytesWritten              358528448                       # Total number of bytes written to DRAM
system.mem_ctrls0.bytesReadSys              887018624                       # Total read bytes from the system interface side
system.mem_ctrls0.bytesWrittenSys           358529664                       # Total written bytes from the system interface side
system.mem_ctrls0.servicedByWrQ                  9959                       # Number of DRAM read bursts serviced by the write queue
system.mem_ctrls0.mergedWrBursts                    0                       # Number of DRAM write bursts merged with an existing one
system.mem_ctrls0.neitherReadNorWriteReqs            0                       # Number of requests that are neither read nor write
system.mem_ctrls0.perBankRdBursts::0           856808                       # Per bank write bursts
system.mem_ctrls0.perBankRdBursts::1           880195                       # Per bank write bursts
system.mem_ctrls0.perBankRdBursts::2           871955                       # Per bank write bursts
system.mem_ctrls0.perBankRdBursts::3           846489                       # Per bank write bursts
system.mem_ctrls0.perBankRdBursts::4           835831                       # Per bank write bursts
system.mem_ctrls0.perBankRdBursts::5           869794                       # Per bank write bursts
system.mem_ctrls0.perBankRdBursts::6           895649                       # Per bank write bursts
system.mem_ctrls0.perBankRdBursts::7           889888                       # Per bank write bursts
system.mem_ctrls0.perBankRdBursts::8           905534                       # Per bank write bursts
system.mem_ctrls0.perBankRdBursts::9           870707                       # Per bank write bursts
system.mem_ctrls0.perBankRdBursts::10          834984                       # Per bank write bursts
system.mem_ctrls0.perBankRdBursts::11          840055                       # Per bank write bursts
system.mem_ctrls0.perBankRdBursts::12          844699                       # Per bank write bursts
system.mem_ctrls0.perBankRdBursts::13          868425                       # Per bank write bursts
system.mem_ctrls0.perBankRdBursts::14          870966                       # Per bank write bursts
system.mem_ctrls0.perBankRdBursts::15          867728                       # Per bank write bursts
system.mem_ctrls0.perBankWrBursts::0           345768                       # Per bank write bursts
system.mem_ctrls0.perBankWrBursts::1           350094                       # Per bank write bursts
system.mem_ctrls0.perBankWrBursts::2           355859                       # Per bank write bursts
system.mem_ctrls0.perBankWrBursts::3           338067                       # Per bank write bursts
system.mem_ctrls0.perBankWrBursts::4           336882                       # Per bank write bursts
system.mem_ctrls0.perBankWrBursts::5           351457                       # Per bank write bursts
system.mem_ctrls0.perBankWrBursts::6           367916                       # Per bank write bursts
system.mem_ctrls0.perBankWrBursts::7           366582                       # Per bank write bursts
system.mem_ctrls0.perBankWrBursts::8           365186                       # Per bank write bursts
system.mem_ctrls0.perBankWrBursts::9           348937                       # Per bank write bursts
system.mem_ctrls0.perBankWrBursts::10          342580                       # Per bank write bursts
system.mem_ctrls0.perBankWrBursts::11          349612                       # Per bank write bursts
system.mem_ctrls0.perBankWrBursts::12          333795                       # Per bank write bursts
system.mem_ctrls0.perBankWrBursts::13          348666                       # Per bank write bursts
system.mem_ctrls0.perBankWrBursts::14          354155                       # Per bank write bursts
system.mem_ctrls0.perBankWrBursts::15          346451                       # Per bank write bursts
system.mem_ctrls0.numRdRetry                        0                       # Number of times read queue was full causing retry
system.mem_ctrls0.numWrRetry                        0                       # Number of times write queue was full causing retry
system.mem_ctrls0.totGap                 5241849355881                       # Total gap between requests
system.mem_ctrls0.readPktSize::0                    0                       # Read request sizes (log2)
system.mem_ctrls0.readPktSize::1                    0                       # Read request sizes (log2)
system.mem_ctrls0.readPktSize::2                    0                       # Read request sizes (log2)
system.mem_ctrls0.readPktSize::3                    0                       # Read request sizes (log2)
system.mem_ctrls0.readPktSize::4                    0                       # Read request sizes (log2)
system.mem_ctrls0.readPktSize::5                    0                       # Read request sizes (log2)
system.mem_ctrls0.readPktSize::6             13859666                       # Read request sizes (log2)
system.mem_ctrls0.writePktSize::0                   0                       # Write request sizes (log2)
system.mem_ctrls0.writePktSize::1                   0                       # Write request sizes (log2)
system.mem_ctrls0.writePktSize::2                   0                       # Write request sizes (log2)
system.mem_ctrls0.writePktSize::3                   0                       # Write request sizes (log2)
system.mem_ctrls0.writePktSize::4                   0                       # Write request sizes (log2)
system.mem_ctrls0.writePktSize::5                   0                       # Write request sizes (log2)
system.mem_ctrls0.writePktSize::6             5602026                       # Write request sizes (log2)
system.mem_ctrls0.rdQLenPdf::0               12539433                       # What read queue length does an incoming req see
system.mem_ctrls0.rdQLenPdf::1                1204069                       # What read queue length does an incoming req see
system.mem_ctrls0.rdQLenPdf::2                 101180                       # What read queue length does an incoming req see
system.mem_ctrls0.rdQLenPdf::3                   5025                       # What read queue length does an incoming req see
system.mem_ctrls0.rdQLenPdf::4                      0                       # What read queue length does an incoming req see
system.mem_ctrls0.rdQLenPdf::5                      0                       # What read queue length does an incoming req see
system.mem_ctrls0.rdQLenPdf::6                      0                       # What read queue length does an incoming req see
system.mem_ctrls0.rdQLenPdf::7                      0                       # What read queue length does an incoming req see
system.mem_ctrls0.rdQLenPdf::8                      0                       # What read queue length does an incoming req see
system.mem_ctrls0.rdQLenPdf::9                      0                       # What read queue length does an incoming req see
system.mem_ctrls0.rdQLenPdf::10                     0                       # What read queue length does an incoming req see
system.mem_ctrls0.rdQLenPdf::11                     0                       # What read queue length does an incoming req see
system.mem_ctrls0.rdQLenPdf::12                     0                       # What read queue length does an incoming req see
system.mem_ctrls0.rdQLenPdf::13                     0                       # What read queue length does an incoming req see
system.mem_ctrls0.rdQLenPdf::14                     0                       # What read queue length does an incoming req see
system.mem_ctrls0.rdQLenPdf::15                     0                       # What read queue length does an incoming req see
system.mem_ctrls0.rdQLenPdf::16                     0                       # What read queue length does an incoming req see
system.mem_ctrls0.rdQLenPdf::17                     0                       # What read queue length does an incoming req see
system.mem_ctrls0.rdQLenPdf::18                     0                       # What read queue length does an incoming req see
system.mem_ctrls0.rdQLenPdf::19                     0                       # What read queue length does an incoming req see
system.mem_ctrls0.rdQLenPdf::20                     0                       # What read queue length does an incoming req see
system.mem_ctrls0.rdQLenPdf::21                     0                       # What read queue length does an incoming req see
system.mem_ctrls0.rdQLenPdf::22                     0                       # What read queue length does an incoming req see
system.mem_ctrls0.rdQLenPdf::23                     0                       # What read queue length does an incoming req see
system.mem_ctrls0.rdQLenPdf::24                     0                       # What read queue length does an incoming req see
system.mem_ctrls0.rdQLenPdf::25                     0                       # What read queue length does an incoming req see
system.mem_ctrls0.rdQLenPdf::26                     0                       # What read queue length does an incoming req see
system.mem_ctrls0.rdQLenPdf::27                     0                       # What read queue length does an incoming req see
system.mem_ctrls0.rdQLenPdf::28                     0                       # What read queue length does an incoming req see
system.mem_ctrls0.rdQLenPdf::29                     0                       # What read queue length does an incoming req see
system.mem_ctrls0.rdQLenPdf::30                     0                       # What read queue length does an incoming req see
system.mem_ctrls0.rdQLenPdf::31                     0                       # What read queue length does an incoming req see
system.mem_ctrls0.wrQLenPdf::0                      2                       # What write queue length does an incoming req see
system.mem_ctrls0.wrQLenPdf::1                      2                       # What write queue length does an incoming req see
system.mem_ctrls0.wrQLenPdf::2                      2                       # What write queue length does an incoming req see
system.mem_ctrls0.wrQLenPdf::3                      2                       # What write queue length does an incoming req see
system.mem_ctrls0.wrQLenPdf::4                      2                       # What write queue length does an incoming req see
system.mem_ctrls0.wrQLenPdf::5                      2                       # What write queue length does an incoming req see
system.mem_ctrls0.wrQLenPdf::6                      2                       # What write queue length does an incoming req see
system.mem_ctrls0.wrQLenPdf::7                      2                       # What write queue length does an incoming req see
system.mem_ctrls0.wrQLenPdf::8                      2                       # What write queue length does an incoming req see
system.mem_ctrls0.wrQLenPdf::9                      2                       # What write queue length does an incoming req see
system.mem_ctrls0.wrQLenPdf::10                     2                       # What write queue length does an incoming req see
system.mem_ctrls0.wrQLenPdf::11                     2                       # What write queue length does an incoming req see
system.mem_ctrls0.wrQLenPdf::12                     2                       # What write queue length does an incoming req see
system.mem_ctrls0.wrQLenPdf::13                     2                       # What write queue length does an incoming req see
system.mem_ctrls0.wrQLenPdf::14                     2                       # What write queue length does an incoming req see
system.mem_ctrls0.wrQLenPdf::15                263144                       # What write queue length does an incoming req see
system.mem_ctrls0.wrQLenPdf::16                273121                       # What write queue length does an incoming req see
system.mem_ctrls0.wrQLenPdf::17                312204                       # What write queue length does an incoming req see
system.mem_ctrls0.wrQLenPdf::18                315573                       # What write queue length does an incoming req see
system.mem_ctrls0.wrQLenPdf::19                315993                       # What write queue length does an incoming req see
system.mem_ctrls0.wrQLenPdf::20                316220                       # What write queue length does an incoming req see
system.mem_ctrls0.wrQLenPdf::21                316329                       # What write queue length does an incoming req see
system.mem_ctrls0.wrQLenPdf::22                317288                       # What write queue length does an incoming req see
system.mem_ctrls0.wrQLenPdf::23                320980                       # What write queue length does an incoming req see
system.mem_ctrls0.wrQLenPdf::24                317247                       # What write queue length does an incoming req see
system.mem_ctrls0.wrQLenPdf::25                316347                       # What write queue length does an incoming req see
system.mem_ctrls0.wrQLenPdf::26                316163                       # What write queue length does an incoming req see
system.mem_ctrls0.wrQLenPdf::27                316097                       # What write queue length does an incoming req see
system.mem_ctrls0.wrQLenPdf::28                316213                       # What write queue length does an incoming req see
system.mem_ctrls0.wrQLenPdf::29                317250                       # What write queue length does an incoming req see
system.mem_ctrls0.wrQLenPdf::30                321329                       # What write queue length does an incoming req see
system.mem_ctrls0.wrQLenPdf::31                315184                       # What write queue length does an incoming req see
system.mem_ctrls0.wrQLenPdf::32                315108                       # What write queue length does an incoming req see
system.mem_ctrls0.wrQLenPdf::33                   183                       # What write queue length does an incoming req see
system.mem_ctrls0.wrQLenPdf::34                    16                       # What write queue length does an incoming req see
system.mem_ctrls0.wrQLenPdf::35                     6                       # What write queue length does an incoming req see
system.mem_ctrls0.wrQLenPdf::36                     1                       # What write queue length does an incoming req see
system.mem_ctrls0.wrQLenPdf::37                     0                       # What write queue length does an incoming req see
system.mem_ctrls0.wrQLenPdf::38                     0                       # What write queue length does an incoming req see
system.mem_ctrls0.wrQLenPdf::39                     0                       # What write queue length does an incoming req see
system.mem_ctrls0.wrQLenPdf::40                     0                       # What write queue length does an incoming req see
system.mem_ctrls0.wrQLenPdf::41                     0                       # What write queue length does an incoming req see
system.mem_ctrls0.wrQLenPdf::42                     0                       # What write queue length does an incoming req see
system.mem_ctrls0.wrQLenPdf::43                     0                       # What write queue length does an incoming req see
system.mem_ctrls0.wrQLenPdf::44                     0                       # What write queue length does an incoming req see
system.mem_ctrls0.wrQLenPdf::45                     0                       # What write queue length does an incoming req see
system.mem_ctrls0.wrQLenPdf::46                     0                       # What write queue length does an incoming req see
system.mem_ctrls0.wrQLenPdf::47                     0                       # What write queue length does an incoming req see
system.mem_ctrls0.wrQLenPdf::48                     0                       # What write queue length does an incoming req see
system.mem_ctrls0.wrQLenPdf::49                     0                       # What write queue length does an incoming req see
system.mem_ctrls0.wrQLenPdf::50                     0                       # What write queue length does an incoming req see
system.mem_ctrls0.wrQLenPdf::51                     0                       # What write queue length does an incoming req see
system.mem_ctrls0.wrQLenPdf::52                     0                       # What write queue length does an incoming req see
system.mem_ctrls0.wrQLenPdf::53                     0                       # What write queue length does an incoming req see
system.mem_ctrls0.wrQLenPdf::54                     0                       # What write queue length does an incoming req see
system.mem_ctrls0.wrQLenPdf::55                     0                       # What write queue length does an incoming req see
system.mem_ctrls0.wrQLenPdf::56                     0                       # What write queue length does an incoming req see
system.mem_ctrls0.wrQLenPdf::57                     0                       # What write queue length does an incoming req see
system.mem_ctrls0.wrQLenPdf::58                     0                       # What write queue length does an incoming req see
system.mem_ctrls0.wrQLenPdf::59                     0                       # What write queue length does an incoming req see
system.mem_ctrls0.wrQLenPdf::60                     0                       # What write queue length does an incoming req see
system.mem_ctrls0.wrQLenPdf::61                     0                       # What write queue length does an incoming req see
system.mem_ctrls0.wrQLenPdf::62                     0                       # What write queue length does an incoming req see
system.mem_ctrls0.wrQLenPdf::63                     0                       # What write queue length does an incoming req see
system.mem_ctrls0.bytesPerActivate::samples     12483173                       # Bytes accessed per row activation
system.mem_ctrls0.bytesPerActivate::mean    99.726983                       # Bytes accessed per row activation
system.mem_ctrls0.bytesPerActivate::gmean    82.814134                       # Bytes accessed per row activation
system.mem_ctrls0.bytesPerActivate::stdev    91.132820                       # Bytes accessed per row activation
system.mem_ctrls0.bytesPerActivate::0-127      9446883     75.68%     75.68% # Bytes accessed per row activation
system.mem_ctrls0.bytesPerActivate::128-255      2193631     17.57%     93.25% # Bytes accessed per row activation
system.mem_ctrls0.bytesPerActivate::256-383       460447      3.69%     96.94% # Bytes accessed per row activation
system.mem_ctrls0.bytesPerActivate::384-511       219812      1.76%     98.70% # Bytes accessed per row activation
system.mem_ctrls0.bytesPerActivate::512-639        99143      0.79%     99.49% # Bytes accessed per row activation
system.mem_ctrls0.bytesPerActivate::640-767        33490      0.27%     99.76% # Bytes accessed per row activation
system.mem_ctrls0.bytesPerActivate::768-895        14991      0.12%     99.88% # Bytes accessed per row activation
system.mem_ctrls0.bytesPerActivate::896-1023         6895      0.06%     99.94% # Bytes accessed per row activation
system.mem_ctrls0.bytesPerActivate::1024-1151         7881      0.06%    100.00% # Bytes accessed per row activation
system.mem_ctrls0.bytesPerActivate::total     12483173                       # Bytes accessed per row activation
system.mem_ctrls0.rdPerTurnAround::samples       315074                       # Reads before turning the bus around for writes
system.mem_ctrls0.rdPerTurnAround::mean     43.956988                       # Reads before turning the bus around for writes
system.mem_ctrls0.rdPerTurnAround::gmean    41.817998                       # Reads before turning the bus around for writes
system.mem_ctrls0.rdPerTurnAround::stdev    44.689564                       # Reads before turning the bus around for writes
system.mem_ctrls0.rdPerTurnAround::0-1023       315073    100.00%    100.00% # Reads before turning the bus around for writes
system.mem_ctrls0.rdPerTurnAround::23552-24575            1      0.00%    100.00% # Reads before turning the bus around for writes
system.mem_ctrls0.rdPerTurnAround::total       315074                       # Reads before turning the bus around for writes
system.mem_ctrls0.wrPerTurnAround::samples       315074                       # Writes before turning the bus around for reads
system.mem_ctrls0.wrPerTurnAround::mean     17.779972                       # Writes before turning the bus around for reads
system.mem_ctrls0.wrPerTurnAround::gmean    17.762678                       # Writes before turning the bus around for reads
system.mem_ctrls0.wrPerTurnAround::stdev     0.768698                       # Writes before turning the bus around for reads
system.mem_ctrls0.wrPerTurnAround::15               1      0.00%      0.00% # Writes before turning the bus around for reads
system.mem_ctrls0.wrPerTurnAround::16           41719     13.24%     13.24% # Writes before turning the bus around for reads
system.mem_ctrls0.wrPerTurnAround::17            8445      2.68%     15.92% # Writes before turning the bus around for reads
system.mem_ctrls0.wrPerTurnAround::18          244007     77.44%     93.37% # Writes before turning the bus around for reads
system.mem_ctrls0.wrPerTurnAround::19           19347      6.14%     99.51% # Writes before turning the bus around for reads
system.mem_ctrls0.wrPerTurnAround::20            1457      0.46%     99.97% # Writes before turning the bus around for reads
system.mem_ctrls0.wrPerTurnAround::21              92      0.03%    100.00% # Writes before turning the bus around for reads
system.mem_ctrls0.wrPerTurnAround::22               6      0.00%    100.00% # Writes before turning the bus around for reads
system.mem_ctrls0.wrPerTurnAround::total       315074                       # Writes before turning the bus around for reads
system.mem_ctrls0.totQLat                303427061452                       # Total ticks spent queuing
system.mem_ctrls0.totMemAccLat           563109067702                       # Total ticks spent from burst creation until serviced by the DRAM
system.mem_ctrls0.totBusLat               69248535000                       # Total ticks spent in databus transfers
system.mem_ctrls0.avgQLat                    21908.55                       # Average queueing delay per DRAM burst
system.mem_ctrls0.avgBusLat                   5000.00                       # Average bus latency per DRAM burst
system.mem_ctrls0.avgMemAccLat               40658.55                       # Average memory access latency per DRAM burst
system.mem_ctrls0.avgRdBW                      169.10                       # Average DRAM read bandwidth in MiByte/s
system.mem_ctrls0.avgWrBW                       68.40                       # Average achieved write bandwidth in MiByte/s
system.mem_ctrls0.avgRdBWSys                   169.22                       # Average system read bandwidth in MiByte/s
system.mem_ctrls0.avgWrBWSys                    68.40                       # Average system write bandwidth in MiByte/s
system.mem_ctrls0.peakBW                     12800.00                       # Theoretical peak bandwidth in MiByte/s
system.mem_ctrls0.busUtil                        1.86                       # Data bus utilization in percentage
system.mem_ctrls0.busUtilRead                    1.32                       # Data bus utilization in percentage for reads
system.mem_ctrls0.busUtilWrite                   0.53                       # Data bus utilization in percentage for writes
system.mem_ctrls0.avgRdQLen                      1.07                       # Average read queue length when enqueuing
system.mem_ctrls0.avgWrQLen                     24.58                       # Average write queue length when enqueuing
system.mem_ctrls0.readRowHits                 6734007                       # Number of row buffer hits during reads
system.mem_ctrls0.writeRowHits                 234526                       # Number of row buffer hits during writes
system.mem_ctrls0.readRowHitRate                48.62                       # Row buffer hit rate for reads
system.mem_ctrls0.writeRowHitRate                4.19                       # Row buffer hit rate for writes
system.mem_ctrls0.avgGap                    269341.91                       # Average gap between requests
system.mem_ctrls0.pageHitRate                   35.82                       # Row buffer hit rate, read and write combined
system.mem_ctrls0_0.actEnergy             44584116360                       # Energy for activate commands per rank (pJ)
system.mem_ctrls0_0.preEnergy             23697004650                       # Energy for precharge commands per rank (pJ)
system.mem_ctrls0_0.readEnergy            49598788260                       # Energy for read commands per rank (pJ)
system.mem_ctrls0_0.writeEnergy           14681902500                       # Energy for write commands per rank (pJ)
system.mem_ctrls0_0.refreshEnergy        415897999920.000122                       # Energy for refresh commands per rank (pJ)
system.mem_ctrls0_0.actBackEnergy        302310947310                       # Energy for active background per rank (pJ)
system.mem_ctrls0_0.preBackEnergy          9830022240                       # Energy for precharge background per rank (pJ)
system.mem_ctrls0_0.actPowerDownEnergy   1802180173140                       # Energy for active power-down per rank (pJ)
system.mem_ctrls0_0.prePowerDownEnergy   218645241600                       # Energy for precharge power-down per rank (pJ)
system.mem_ctrls0_0.selfRefreshEnergy     12085731240                       # Energy for self refresh per rank (pJ)
system.mem_ctrls0_0.totalEnergy          2893551640680                       # Total energy per rank (pJ)
system.mem_ctrls0_0.averagePower           552.009670                       # Core power per rank (mW)
system.mem_ctrls0_0.totalIdleTime        4553206094333                       # Total Idle time Per DRAM Rank
system.mem_ctrls0_0.memoryStateTime::IDLE   6010897982                       # Time in different power states
system.mem_ctrls0_0.memoryStateTime::REF 175982394000                       # Time in different power states
system.mem_ctrls0_0.memoryStateTime::SREF  31661415840                       # Time in different power states
system.mem_ctrls0_0.memoryStateTime::PRE_PDN 569382574089                       # Time in different power states
system.mem_ctrls0_0.memoryStateTime::ACT 506650023051                       # Time in different power states
system.mem_ctrls0_0.memoryStateTime::ACT_PDN 3952162218085                       # Time in different power states
system.mem_ctrls0_1.actEnergy             44545795980                       # Energy for activate commands per rank (pJ)
system.mem_ctrls0_1.preEnergy             23676636885                       # Energy for precharge commands per rank (pJ)
system.mem_ctrls0_1.readEnergy            49288119720                       # Energy for read commands per rank (pJ)
system.mem_ctrls0_1.writeEnergy           14560574040                       # Energy for write commands per rank (pJ)
system.mem_ctrls0_1.refreshEnergy        415944712560.000122                       # Energy for refresh commands per rank (pJ)
system.mem_ctrls0_1.actBackEnergy        301850804550                       # Energy for active background per rank (pJ)
system.mem_ctrls0_1.preBackEnergy          9833505120                       # Energy for precharge background per rank (pJ)
system.mem_ctrls0_1.actPowerDownEnergy   1801038091500                       # Energy for active power-down per rank (pJ)
system.mem_ctrls0_1.prePowerDownEnergy   219780055680                       # Energy for precharge power-down per rank (pJ)
system.mem_ctrls0_1.selfRefreshEnergy     12305325855                       # Energy for self refresh per rank (pJ)
system.mem_ctrls0_1.totalEnergy          2892867987990                       # Total energy per rank (pJ)
system.mem_ctrls0_1.averagePower           551.879249                       # Core power per rank (mW)
system.mem_ctrls0_1.totalIdleTime        4554189088235                       # Total Idle time Per DRAM Rank
system.mem_ctrls0_1.memoryStateTime::IDLE   6067422634                       # Time in different power states
system.mem_ctrls0_1.memoryStateTime::REF 176003024000                       # Time in different power states
system.mem_ctrls0_1.memoryStateTime::SREF  32200460531                       # Time in different power states
system.mem_ctrls0_1.memoryStateTime::PRE_PDN 572338860593                       # Time in different power states
system.mem_ctrls0_1.memoryStateTime::ACT 505589988178                       # Time in different power states
system.mem_ctrls0_1.memoryStateTime::ACT_PDN 3949649767111                       # Time in different power states
system.mem_ctrls1.pwrStateResidencyTicks::UNDEFINED 132194846047779                       # Cumulative time (in ticks) in various power states
system.mem_ctrls1.bytes_read::cpu.data            128                       # Number of bytes read from this memory
system.mem_ctrls1.bytes_read::switch_cpus.inst        26304                       # Number of bytes read from this memory
system.mem_ctrls1.bytes_read::switch_cpus.data    418027904                       # Number of bytes read from this memory
system.mem_ctrls1.bytes_read::switch_cpus_1.inst        22528                       # Number of bytes read from this memory
system.mem_ctrls1.bytes_read::switch_cpus_1.data    467612416                       # Number of bytes read from this memory
system.mem_ctrls1.bytes_read::total         885689280                       # Number of bytes read from this memory
system.mem_ctrls1.bytes_inst_read::switch_cpus.inst        26304                       # Number of instructions bytes read from this memory
system.mem_ctrls1.bytes_inst_read::switch_cpus_1.inst        22528                       # Number of instructions bytes read from this memory
system.mem_ctrls1.bytes_inst_read::total        48832                       # Number of instructions bytes read from this memory
system.mem_ctrls1.bytes_written::writebacks    356265856                       # Number of bytes written to this memory
system.mem_ctrls1.bytes_written::total      356265856                       # Number of bytes written to this memory
system.mem_ctrls1.num_reads::cpu.data               2                       # Number of read requests responded to by this memory
system.mem_ctrls1.num_reads::switch_cpus.inst          411                       # Number of read requests responded to by this memory
system.mem_ctrls1.num_reads::switch_cpus.data      6531686                       # Number of read requests responded to by this memory
system.mem_ctrls1.num_reads::switch_cpus_1.inst          352                       # Number of read requests responded to by this memory
system.mem_ctrls1.num_reads::switch_cpus_1.data      7306444                       # Number of read requests responded to by this memory
system.mem_ctrls1.num_reads::total           13838895                       # Number of read requests responded to by this memory
system.mem_ctrls1.num_writes::writebacks      5566654                       # Number of write requests responded to by this memory
system.mem_ctrls1.num_writes::total           5566654                       # Number of write requests responded to by this memory
system.mem_ctrls1.bw_read::cpu.data                24                       # Total read bandwidth from this memory (bytes/s)
system.mem_ctrls1.bw_read::switch_cpus.inst         5018                       # Total read bandwidth from this memory (bytes/s)
system.mem_ctrls1.bw_read::switch_cpus.data     79748169                       # Total read bandwidth from this memory (bytes/s)
system.mem_ctrls1.bw_read::switch_cpus_1.inst         4298                       # Total read bandwidth from this memory (bytes/s)
system.mem_ctrls1.bw_read::switch_cpus_1.data     89207524                       # Total read bandwidth from this memory (bytes/s)
system.mem_ctrls1.bw_read::total            168965033                       # Total read bandwidth from this memory (bytes/s)
system.mem_ctrls1.bw_inst_read::switch_cpus.inst         5018                       # Instruction read bandwidth from this memory (bytes/s)
system.mem_ctrls1.bw_inst_read::switch_cpus_1.inst         4298                       # Instruction read bandwidth from this memory (bytes/s)
system.mem_ctrls1.bw_inst_read::total            9316                       # Instruction read bandwidth from this memory (bytes/s)
system.mem_ctrls1.bw_write::writebacks       67965678                       # Write bandwidth from this memory (bytes/s)
system.mem_ctrls1.bw_write::total            67965678                       # Write bandwidth from this memory (bytes/s)
system.mem_ctrls1.bw_total::writebacks       67965678                       # Total bandwidth to/from this memory (bytes/s)
system.mem_ctrls1.bw_total::cpu.data               24                       # Total bandwidth to/from this memory (bytes/s)
system.mem_ctrls1.bw_total::switch_cpus.inst         5018                       # Total bandwidth to/from this memory (bytes/s)
system.mem_ctrls1.bw_total::switch_cpus.data     79748169                       # Total bandwidth to/from this memory (bytes/s)
system.mem_ctrls1.bw_total::switch_cpus_1.inst         4298                       # Total bandwidth to/from this memory (bytes/s)
system.mem_ctrls1.bw_total::switch_cpus_1.data     89207524                       # Total bandwidth to/from this memory (bytes/s)
system.mem_ctrls1.bw_total::total           236930711                       # Total bandwidth to/from this memory (bytes/s)
system.mem_ctrls1.readReqs                   13838895                       # Number of read requests accepted
system.mem_ctrls1.writeReqs                   5566654                       # Number of write requests accepted
system.mem_ctrls1.readBursts                 13838895                       # Number of DRAM read bursts, including those serviced by the write queue
system.mem_ctrls1.writeBursts                 5566654                       # Number of DRAM write bursts, including those merged in the write queue
system.mem_ctrls1.bytesReadDRAM             885070208                       # Total number of bytes read from DRAM
system.mem_ctrls1.bytesReadWrQ                 619072                       # Total number of bytes read from write queue
system.mem_ctrls1.bytesWritten              356264192                       # Total number of bytes written to DRAM
system.mem_ctrls1.bytesReadSys              885689280                       # Total read bytes from the system interface side
system.mem_ctrls1.bytesWrittenSys           356265856                       # Total written bytes from the system interface side
system.mem_ctrls1.servicedByWrQ                  9673                       # Number of DRAM read bursts serviced by the write queue
system.mem_ctrls1.mergedWrBursts                    0                       # Number of DRAM write bursts merged with an existing one
system.mem_ctrls1.neitherReadNorWriteReqs            0                       # Number of requests that are neither read nor write
system.mem_ctrls1.perBankRdBursts::0           861778                       # Per bank write bursts
system.mem_ctrls1.perBankRdBursts::1           864409                       # Per bank write bursts
system.mem_ctrls1.perBankRdBursts::2           872627                       # Per bank write bursts
system.mem_ctrls1.perBankRdBursts::3           848831                       # Per bank write bursts
system.mem_ctrls1.perBankRdBursts::4           833294                       # Per bank write bursts
system.mem_ctrls1.perBankRdBursts::5           866362                       # Per bank write bursts
system.mem_ctrls1.perBankRdBursts::6           898445                       # Per bank write bursts
system.mem_ctrls1.perBankRdBursts::7           877454                       # Per bank write bursts
system.mem_ctrls1.perBankRdBursts::8           912117                       # Per bank write bursts
system.mem_ctrls1.perBankRdBursts::9           878332                       # Per bank write bursts
system.mem_ctrls1.perBankRdBursts::10          834953                       # Per bank write bursts
system.mem_ctrls1.perBankRdBursts::11          840518                       # Per bank write bursts
system.mem_ctrls1.perBankRdBursts::12          840353                       # Per bank write bursts
system.mem_ctrls1.perBankRdBursts::13          860392                       # Per bank write bursts
system.mem_ctrls1.perBankRdBursts::14          875914                       # Per bank write bursts
system.mem_ctrls1.perBankRdBursts::15          863443                       # Per bank write bursts
system.mem_ctrls1.perBankWrBursts::0           348476                       # Per bank write bursts
system.mem_ctrls1.perBankWrBursts::1           343965                       # Per bank write bursts
system.mem_ctrls1.perBankWrBursts::2           349859                       # Per bank write bursts
system.mem_ctrls1.perBankWrBursts::3           337883                       # Per bank write bursts
system.mem_ctrls1.perBankWrBursts::4           339350                       # Per bank write bursts
system.mem_ctrls1.perBankWrBursts::5           347744                       # Per bank write bursts
system.mem_ctrls1.perBankWrBursts::6           362531                       # Per bank write bursts
system.mem_ctrls1.perBankWrBursts::7           349187                       # Per bank write bursts
system.mem_ctrls1.perBankWrBursts::8           367010                       # Per bank write bursts
system.mem_ctrls1.perBankWrBursts::9           348191                       # Per bank write bursts
system.mem_ctrls1.perBankWrBursts::10          344120                       # Per bank write bursts
system.mem_ctrls1.perBankWrBursts::11          347997                       # Per bank write bursts
system.mem_ctrls1.perBankWrBursts::12          337299                       # Per bank write bursts
system.mem_ctrls1.perBankWrBursts::13          341823                       # Per bank write bursts
system.mem_ctrls1.perBankWrBursts::14          354022                       # Per bank write bursts
system.mem_ctrls1.perBankWrBursts::15          347171                       # Per bank write bursts
system.mem_ctrls1.numRdRetry                        0                       # Number of times read queue was full causing retry
system.mem_ctrls1.numWrRetry                        0                       # Number of times write queue was full causing retry
system.mem_ctrls1.totGap                 5241849042528                       # Total gap between requests
system.mem_ctrls1.readPktSize::0                    0                       # Read request sizes (log2)
system.mem_ctrls1.readPktSize::1                    0                       # Read request sizes (log2)
system.mem_ctrls1.readPktSize::2                    0                       # Read request sizes (log2)
system.mem_ctrls1.readPktSize::3                    0                       # Read request sizes (log2)
system.mem_ctrls1.readPktSize::4                    0                       # Read request sizes (log2)
system.mem_ctrls1.readPktSize::5                    0                       # Read request sizes (log2)
system.mem_ctrls1.readPktSize::6             13838895                       # Read request sizes (log2)
system.mem_ctrls1.writePktSize::0                   0                       # Write request sizes (log2)
system.mem_ctrls1.writePktSize::1                   0                       # Write request sizes (log2)
system.mem_ctrls1.writePktSize::2                   0                       # Write request sizes (log2)
system.mem_ctrls1.writePktSize::3                   0                       # Write request sizes (log2)
system.mem_ctrls1.writePktSize::4                   0                       # Write request sizes (log2)
system.mem_ctrls1.writePktSize::5                   0                       # Write request sizes (log2)
system.mem_ctrls1.writePktSize::6             5566654                       # Write request sizes (log2)
system.mem_ctrls1.rdQLenPdf::0               12519330                       # What read queue length does an incoming req see
system.mem_ctrls1.rdQLenPdf::1                1201082                       # What read queue length does an incoming req see
system.mem_ctrls1.rdQLenPdf::2                 103441                       # What read queue length does an incoming req see
system.mem_ctrls1.rdQLenPdf::3                   5369                       # What read queue length does an incoming req see
system.mem_ctrls1.rdQLenPdf::4                      0                       # What read queue length does an incoming req see
system.mem_ctrls1.rdQLenPdf::5                      0                       # What read queue length does an incoming req see
system.mem_ctrls1.rdQLenPdf::6                      0                       # What read queue length does an incoming req see
system.mem_ctrls1.rdQLenPdf::7                      0                       # What read queue length does an incoming req see
system.mem_ctrls1.rdQLenPdf::8                      0                       # What read queue length does an incoming req see
system.mem_ctrls1.rdQLenPdf::9                      0                       # What read queue length does an incoming req see
system.mem_ctrls1.rdQLenPdf::10                     0                       # What read queue length does an incoming req see
system.mem_ctrls1.rdQLenPdf::11                     0                       # What read queue length does an incoming req see
system.mem_ctrls1.rdQLenPdf::12                     0                       # What read queue length does an incoming req see
system.mem_ctrls1.rdQLenPdf::13                     0                       # What read queue length does an incoming req see
system.mem_ctrls1.rdQLenPdf::14                     0                       # What read queue length does an incoming req see
system.mem_ctrls1.rdQLenPdf::15                     0                       # What read queue length does an incoming req see
system.mem_ctrls1.rdQLenPdf::16                     0                       # What read queue length does an incoming req see
system.mem_ctrls1.rdQLenPdf::17                     0                       # What read queue length does an incoming req see
system.mem_ctrls1.rdQLenPdf::18                     0                       # What read queue length does an incoming req see
system.mem_ctrls1.rdQLenPdf::19                     0                       # What read queue length does an incoming req see
system.mem_ctrls1.rdQLenPdf::20                     0                       # What read queue length does an incoming req see
system.mem_ctrls1.rdQLenPdf::21                     0                       # What read queue length does an incoming req see
system.mem_ctrls1.rdQLenPdf::22                     0                       # What read queue length does an incoming req see
system.mem_ctrls1.rdQLenPdf::23                     0                       # What read queue length does an incoming req see
system.mem_ctrls1.rdQLenPdf::24                     0                       # What read queue length does an incoming req see
system.mem_ctrls1.rdQLenPdf::25                     0                       # What read queue length does an incoming req see
system.mem_ctrls1.rdQLenPdf::26                     0                       # What read queue length does an incoming req see
system.mem_ctrls1.rdQLenPdf::27                     0                       # What read queue length does an incoming req see
system.mem_ctrls1.rdQLenPdf::28                     0                       # What read queue length does an incoming req see
system.mem_ctrls1.rdQLenPdf::29                     0                       # What read queue length does an incoming req see
system.mem_ctrls1.rdQLenPdf::30                     0                       # What read queue length does an incoming req see
system.mem_ctrls1.rdQLenPdf::31                     0                       # What read queue length does an incoming req see
system.mem_ctrls1.wrQLenPdf::0                      2                       # What write queue length does an incoming req see
system.mem_ctrls1.wrQLenPdf::1                      2                       # What write queue length does an incoming req see
system.mem_ctrls1.wrQLenPdf::2                      2                       # What write queue length does an incoming req see
system.mem_ctrls1.wrQLenPdf::3                      2                       # What write queue length does an incoming req see
system.mem_ctrls1.wrQLenPdf::4                      2                       # What write queue length does an incoming req see
system.mem_ctrls1.wrQLenPdf::5                      2                       # What write queue length does an incoming req see
system.mem_ctrls1.wrQLenPdf::6                      2                       # What write queue length does an incoming req see
system.mem_ctrls1.wrQLenPdf::7                      2                       # What write queue length does an incoming req see
system.mem_ctrls1.wrQLenPdf::8                      2                       # What write queue length does an incoming req see
system.mem_ctrls1.wrQLenPdf::9                      2                       # What write queue length does an incoming req see
system.mem_ctrls1.wrQLenPdf::10                     2                       # What write queue length does an incoming req see
system.mem_ctrls1.wrQLenPdf::11                     2                       # What write queue length does an incoming req see
system.mem_ctrls1.wrQLenPdf::12                     2                       # What write queue length does an incoming req see
system.mem_ctrls1.wrQLenPdf::13                     2                       # What write queue length does an incoming req see
system.mem_ctrls1.wrQLenPdf::14                     2                       # What write queue length does an incoming req see
system.mem_ctrls1.wrQLenPdf::15                261626                       # What write queue length does an incoming req see
system.mem_ctrls1.wrQLenPdf::16                271489                       # What write queue length does an incoming req see
system.mem_ctrls1.wrQLenPdf::17                310215                       # What write queue length does an incoming req see
system.mem_ctrls1.wrQLenPdf::18                313534                       # What write queue length does an incoming req see
system.mem_ctrls1.wrQLenPdf::19                313956                       # What write queue length does an incoming req see
system.mem_ctrls1.wrQLenPdf::20                314198                       # What write queue length does an incoming req see
system.mem_ctrls1.wrQLenPdf::21                314300                       # What write queue length does an incoming req see
system.mem_ctrls1.wrQLenPdf::22                315319                       # What write queue length does an incoming req see
system.mem_ctrls1.wrQLenPdf::23                318815                       # What write queue length does an incoming req see
system.mem_ctrls1.wrQLenPdf::24                315289                       # What write queue length does an incoming req see
system.mem_ctrls1.wrQLenPdf::25                314325                       # What write queue length does an incoming req see
system.mem_ctrls1.wrQLenPdf::26                314186                       # What write queue length does an incoming req see
system.mem_ctrls1.wrQLenPdf::27                314079                       # What write queue length does an incoming req see
system.mem_ctrls1.wrQLenPdf::28                314246                       # What write queue length does an incoming req see
system.mem_ctrls1.wrQLenPdf::29                315202                       # What write queue length does an incoming req see
system.mem_ctrls1.wrQLenPdf::30                319356                       # What write queue length does an incoming req see
system.mem_ctrls1.wrQLenPdf::31                313184                       # What write queue length does an incoming req see
system.mem_ctrls1.wrQLenPdf::32                313107                       # What write queue length does an incoming req see
system.mem_ctrls1.wrQLenPdf::33                   181                       # What write queue length does an incoming req see
system.mem_ctrls1.wrQLenPdf::34                    17                       # What write queue length does an incoming req see
system.mem_ctrls1.wrQLenPdf::35                     0                       # What write queue length does an incoming req see
system.mem_ctrls1.wrQLenPdf::36                     0                       # What write queue length does an incoming req see
system.mem_ctrls1.wrQLenPdf::37                     0                       # What write queue length does an incoming req see
system.mem_ctrls1.wrQLenPdf::38                     0                       # What write queue length does an incoming req see
system.mem_ctrls1.wrQLenPdf::39                     0                       # What write queue length does an incoming req see
system.mem_ctrls1.wrQLenPdf::40                     0                       # What write queue length does an incoming req see
system.mem_ctrls1.wrQLenPdf::41                     0                       # What write queue length does an incoming req see
system.mem_ctrls1.wrQLenPdf::42                     0                       # What write queue length does an incoming req see
system.mem_ctrls1.wrQLenPdf::43                     0                       # What write queue length does an incoming req see
system.mem_ctrls1.wrQLenPdf::44                     0                       # What write queue length does an incoming req see
system.mem_ctrls1.wrQLenPdf::45                     0                       # What write queue length does an incoming req see
system.mem_ctrls1.wrQLenPdf::46                     0                       # What write queue length does an incoming req see
system.mem_ctrls1.wrQLenPdf::47                     0                       # What write queue length does an incoming req see
system.mem_ctrls1.wrQLenPdf::48                     0                       # What write queue length does an incoming req see
system.mem_ctrls1.wrQLenPdf::49                     0                       # What write queue length does an incoming req see
system.mem_ctrls1.wrQLenPdf::50                     0                       # What write queue length does an incoming req see
system.mem_ctrls1.wrQLenPdf::51                     0                       # What write queue length does an incoming req see
system.mem_ctrls1.wrQLenPdf::52                     0                       # What write queue length does an incoming req see
system.mem_ctrls1.wrQLenPdf::53                     0                       # What write queue length does an incoming req see
system.mem_ctrls1.wrQLenPdf::54                     0                       # What write queue length does an incoming req see
system.mem_ctrls1.wrQLenPdf::55                     0                       # What write queue length does an incoming req see
system.mem_ctrls1.wrQLenPdf::56                     0                       # What write queue length does an incoming req see
system.mem_ctrls1.wrQLenPdf::57                     0                       # What write queue length does an incoming req see
system.mem_ctrls1.wrQLenPdf::58                     0                       # What write queue length does an incoming req see
system.mem_ctrls1.wrQLenPdf::59                     0                       # What write queue length does an incoming req see
system.mem_ctrls1.wrQLenPdf::60                     0                       # What write queue length does an incoming req see
system.mem_ctrls1.wrQLenPdf::61                     0                       # What write queue length does an incoming req see
system.mem_ctrls1.wrQLenPdf::62                     0                       # What write queue length does an incoming req see
system.mem_ctrls1.wrQLenPdf::63                     0                       # What write queue length does an incoming req see
system.mem_ctrls1.bytesPerActivate::samples     12430527                       # Bytes accessed per row activation
system.mem_ctrls1.bytesPerActivate::mean    99.861727                       # Bytes accessed per row activation
system.mem_ctrls1.bytesPerActivate::gmean    82.882117                       # Bytes accessed per row activation
system.mem_ctrls1.bytesPerActivate::stdev    91.308016                       # Bytes accessed per row activation
system.mem_ctrls1.bytesPerActivate::0-127      9400548     75.62%     75.62% # Bytes accessed per row activation
system.mem_ctrls1.bytesPerActivate::128-255      2185650     17.58%     93.21% # Bytes accessed per row activation
system.mem_ctrls1.bytesPerActivate::256-383       461563      3.71%     96.92% # Bytes accessed per row activation
system.mem_ctrls1.bytesPerActivate::384-511       219779      1.77%     98.69% # Bytes accessed per row activation
system.mem_ctrls1.bytesPerActivate::512-639        99924      0.80%     99.49% # Bytes accessed per row activation
system.mem_ctrls1.bytesPerActivate::640-767        33274      0.27%     99.76% # Bytes accessed per row activation
system.mem_ctrls1.bytesPerActivate::768-895        15100      0.12%     99.88% # Bytes accessed per row activation
system.mem_ctrls1.bytesPerActivate::896-1023         6991      0.06%     99.94% # Bytes accessed per row activation
system.mem_ctrls1.bytesPerActivate::1024-1151         7698      0.06%    100.00% # Bytes accessed per row activation
system.mem_ctrls1.bytesPerActivate::total     12430527                       # Bytes accessed per row activation
system.mem_ctrls1.rdPerTurnAround::samples       313082                       # Reads before turning the bus around for writes
system.mem_ctrls1.rdPerTurnAround::mean     44.171102                       # Reads before turning the bus around for writes
system.mem_ctrls1.rdPerTurnAround::gmean    42.015083                       # Reads before turning the bus around for writes
system.mem_ctrls1.rdPerTurnAround::stdev    45.593033                       # Reads before turning the bus around for writes
system.mem_ctrls1.rdPerTurnAround::0-1023       313081    100.00%    100.00% # Reads before turning the bus around for writes
system.mem_ctrls1.rdPerTurnAround::23552-24575            1      0.00%    100.00% # Reads before turning the bus around for writes
system.mem_ctrls1.rdPerTurnAround::total       313082                       # Reads before turning the bus around for writes
system.mem_ctrls1.wrPerTurnAround::samples       313082                       # Writes before turning the bus around for reads
system.mem_ctrls1.wrPerTurnAround::mean     17.780096                       # Writes before turning the bus around for reads
system.mem_ctrls1.wrPerTurnAround::gmean    17.762868                       # Writes before turning the bus around for reads
system.mem_ctrls1.wrPerTurnAround::stdev     0.767233                       # Writes before turning the bus around for reads
system.mem_ctrls1.wrPerTurnAround::16           41301     13.19%     13.19% # Writes before turning the bus around for reads
system.mem_ctrls1.wrPerTurnAround::17            8444      2.70%     15.89% # Writes before turning the bus around for reads
system.mem_ctrls1.wrPerTurnAround::18          242808     77.55%     93.44% # Writes before turning the bus around for reads
system.mem_ctrls1.wrPerTurnAround::19           18976      6.06%     99.50% # Writes before turning the bus around for reads
system.mem_ctrls1.wrPerTurnAround::20            1445      0.46%     99.97% # Writes before turning the bus around for reads
system.mem_ctrls1.wrPerTurnAround::21             101      0.03%    100.00% # Writes before turning the bus around for reads
system.mem_ctrls1.wrPerTurnAround::22               6      0.00%    100.00% # Writes before turning the bus around for reads
system.mem_ctrls1.wrPerTurnAround::23               1      0.00%    100.00% # Writes before turning the bus around for reads
system.mem_ctrls1.wrPerTurnAround::total       313082                       # Writes before turning the bus around for reads
system.mem_ctrls1.totQLat                302385334980                       # Total ticks spent queuing
system.mem_ctrls1.totMemAccLat           561683247480                       # Total ticks spent from burst creation until serviced by the DRAM
system.mem_ctrls1.totBusLat               69146110000                       # Total ticks spent in databus transfers
system.mem_ctrls1.avgQLat                    21865.68                       # Average queueing delay per DRAM burst
system.mem_ctrls1.avgBusLat                   5000.00                       # Average bus latency per DRAM burst
system.mem_ctrls1.avgMemAccLat               40615.68                       # Average memory access latency per DRAM burst
system.mem_ctrls1.avgRdBW                      168.85                       # Average DRAM read bandwidth in MiByte/s
system.mem_ctrls1.avgWrBW                       67.97                       # Average achieved write bandwidth in MiByte/s
system.mem_ctrls1.avgRdBWSys                   168.97                       # Average system read bandwidth in MiByte/s
system.mem_ctrls1.avgWrBWSys                    67.97                       # Average system write bandwidth in MiByte/s
system.mem_ctrls1.peakBW                     12800.00                       # Theoretical peak bandwidth in MiByte/s
system.mem_ctrls1.busUtil                        1.85                       # Data bus utilization in percentage
system.mem_ctrls1.busUtilRead                    1.32                       # Data bus utilization in percentage for reads
system.mem_ctrls1.busUtilWrite                   0.53                       # Data bus utilization in percentage for writes
system.mem_ctrls1.avgRdQLen                      1.07                       # Average read queue length when enqueuing
system.mem_ctrls1.avgWrQLen                     24.57                       # Average write queue length when enqueuing
system.mem_ctrls1.readRowHits                 6733433                       # Number of row buffer hits during reads
system.mem_ctrls1.writeRowHits                 231884                       # Number of row buffer hits during writes
system.mem_ctrls1.readRowHitRate                48.69                       # Row buffer hit rate for reads
system.mem_ctrls1.writeRowHitRate                4.17                       # Row buffer hit rate for writes
system.mem_ctrls1.avgGap                    270121.14                       # Average gap between requests
system.mem_ctrls1.pageHitRate                   35.91                       # Row buffer hit rate, read and write combined
system.mem_ctrls1_0.actEnergy             44360255940                       # Energy for activate commands per rank (pJ)
system.mem_ctrls1_0.preEnergy             23578016220                       # Energy for precharge commands per rank (pJ)
system.mem_ctrls1_0.readEnergy            49431648000                       # Energy for read commands per rank (pJ)
system.mem_ctrls1_0.writeEnergy           14506353900                       # Energy for write commands per rank (pJ)
system.mem_ctrls1_0.refreshEnergy        415802730720.000122                       # Energy for refresh commands per rank (pJ)
system.mem_ctrls1_0.actBackEnergy        300945571590                       # Energy for active background per rank (pJ)
system.mem_ctrls1_0.preBackEnergy          9815106720                       # Energy for precharge background per rank (pJ)
system.mem_ctrls1_0.actPowerDownEnergy   1804314838530                       # Energy for active power-down per rank (pJ)
system.mem_ctrls1_0.prePowerDownEnergy   217953785760                       # Energy for precharge power-down per rank (pJ)
system.mem_ctrls1_0.selfRefreshEnergy     12042077865                       # Energy for self refresh per rank (pJ)
system.mem_ctrls1_0.totalEnergy          2892791877915                       # Total energy per rank (pJ)
system.mem_ctrls1_0.averagePower           551.864728                       # Core power per rank (mW)
system.mem_ctrls1_0.totalIdleTime        4556242112748                       # Total Idle time Per DRAM Rank
system.mem_ctrls1_0.memoryStateTime::IDLE   5982654368                       # Time in different power states
system.mem_ctrls1_0.memoryStateTime::REF 175941218000                       # Time in different power states
system.mem_ctrls1_0.memoryStateTime::SREF  31809973682                       # Time in different power states
system.mem_ctrls1_0.memoryStateTime::PRE_PDN 567595353666                       # Time in different power states
system.mem_ctrls1_0.memoryStateTime::ACT 503683258319                       # Time in different power states
system.mem_ctrls1_0.memoryStateTime::ACT_PDN 3956837065012                       # Time in different power states
system.mem_ctrls1_1.actEnergy             44393749680                       # Energy for activate commands per rank (pJ)
system.mem_ctrls1_1.preEnergy             23595833745                       # Energy for precharge commands per rank (pJ)
system.mem_ctrls1_1.readEnergy            49308997080                       # Energy for read commands per rank (pJ)
system.mem_ctrls1_1.writeEnergy           14551444260                       # Energy for write commands per rank (pJ)
system.mem_ctrls1_1.refreshEnergy        415882019280.000122                       # Energy for refresh commands per rank (pJ)
system.mem_ctrls1_1.actBackEnergy        301972420890                       # Energy for active background per rank (pJ)
system.mem_ctrls1_1.preBackEnergy          9831249600                       # Energy for precharge background per rank (pJ)
system.mem_ctrls1_1.actPowerDownEnergy   1799191508100                       # Energy for active power-down per rank (pJ)
system.mem_ctrls1_1.prePowerDownEnergy   220870068480                       # Energy for precharge power-down per rank (pJ)
system.mem_ctrls1_1.selfRefreshEnergy     12544863780                       # Energy for self refresh per rank (pJ)
system.mem_ctrls1_1.totalEnergy          2892186006015                       # Total energy per rank (pJ)
system.mem_ctrls1_1.averagePower           551.749146                       # Core power per rank (mW)
system.mem_ctrls1_1.totalIdleTime        4553919425826                       # Total Idle time Per DRAM Rank
system.mem_ctrls1_1.memoryStateTime::IDLE   6066500148                       # Time in different power states
system.mem_ctrls1_1.memoryStateTime::REF 175976972000                       # Time in different power states
system.mem_ctrls1_1.memoryStateTime::SREF  33151563737                       # Time in different power states
system.mem_ctrls1_1.memoryStateTime::PRE_PDN 575176143698                       # Time in different power states
system.mem_ctrls1_1.memoryStateTime::ACT 505884655763                       # Time in different power states
system.mem_ctrls1_1.memoryStateTime::ACT_PDN 3945593687701                       # Time in different power states
system.pwrStateResidencyTicks::UNDEFINED 132194846047779                       # Cumulative time (in ticks) in various power states
system.cpu.branchPred.lookups                       3                       # Number of BP lookups
system.cpu.branchPred.condPredicted                 3                       # Number of conditional branches predicted
system.cpu.branchPred.condIncorrect                 1                       # Number of conditional branches incorrect
system.cpu.branchPred.BTBLookups                    0                       # Number of BTB lookups
system.cpu.branchPred.BTBHits                       0                       # Number of BTB hits
system.cpu.branchPred.BTBCorrect                    0                       # Number of correct BTB predictions (this stat may not work properly.
system.cpu.branchPred.BTBHitPct                   nan                       # BTB Hit Percentage
system.cpu.branchPred.usedRAS                       0                       # Number of times the RAS was used to get a target.
system.cpu.branchPred.RASInCorrect                  0                       # Number of incorrect RAS predictions.
system.cpu.branchPred.indirectLookups               0                       # Number of indirect predictor lookups.
system.cpu.branchPred.indirectHits                  0                       # Number of indirect target hits.
system.cpu.branchPred.indirectMisses                0                       # Number of indirect misses.
system.cpu.branchPredindirectMispredicted            0                       # Number of mispredicted indirect branches.
system.cpu_voltage_domain.voltage                   1                       # Voltage in Volts
system.cpu_clk_domain.clock                       333                       # Clock period in ticks
system.cpu.dtb.fetch_hits                           0                       # ITB hits
system.cpu.dtb.fetch_misses                         0                       # ITB misses
system.cpu.dtb.fetch_acv                            0                       # ITB acv
system.cpu.dtb.fetch_accesses                       0                       # ITB accesses
system.cpu.dtb.read_hits                            2                       # DTB read hits
system.cpu.dtb.read_misses                          0                       # DTB read misses
system.cpu.dtb.read_acv                             0                       # DTB read access violations
system.cpu.dtb.read_accesses                        2                       # DTB read accesses
system.cpu.dtb.write_hits                           0                       # DTB write hits
system.cpu.dtb.write_misses                         0                       # DTB write misses
system.cpu.dtb.write_acv                            0                       # DTB write access violations
system.cpu.dtb.write_accesses                       0                       # DTB write accesses
system.cpu.dtb.data_hits                            2                       # DTB hits
system.cpu.dtb.data_misses                          0                       # DTB misses
system.cpu.dtb.data_acv                             0                       # DTB access violations
system.cpu.dtb.data_accesses                        2                       # DTB accesses
system.cpu.itb.fetch_hits                           3                       # ITB hits
system.cpu.itb.fetch_misses                         0                       # ITB misses
system.cpu.itb.fetch_acv                            0                       # ITB acv
system.cpu.itb.fetch_accesses                       3                       # ITB accesses
system.cpu.itb.read_hits                            0                       # DTB read hits
system.cpu.itb.read_misses                          0                       # DTB read misses
system.cpu.itb.read_acv                             0                       # DTB read access violations
system.cpu.itb.read_accesses                        0                       # DTB read accesses
system.cpu.itb.write_hits                           0                       # DTB write hits
system.cpu.itb.write_misses                         0                       # DTB write misses
system.cpu.itb.write_acv                            0                       # DTB write access violations
system.cpu.itb.write_accesses                       0                       # DTB write accesses
system.cpu.itb.data_hits                            0                       # DTB hits
system.cpu.itb.data_misses                          0                       # DTB misses
system.cpu.itb.data_acv                             0                       # DTB access violations
system.cpu.itb.data_accesses                        0                       # DTB accesses
system.cpu.workload.num_syscalls                    2                       # Number of system calls
system.cpu.pwrStateResidencyTicks::ON    5241849523047                       # Cumulative time (in ticks) in various power states
system.cpu.numCycles                              493                       # number of cpu cycles simulated
system.cpu.numWorkItemsStarted                      0                       # number of work items this cpu started
system.cpu.numWorkItemsCompleted                    0                       # number of work items this cpu completed
system.cpu.fetch.icacheStallCycles                 19                       # Number of cycles fetch is stalled on an Icache miss
system.cpu.fetch.Insts                              9                       # Number of instructions fetch has processed
system.cpu.fetch.Branches                           3                       # Number of branches that fetch encountered
system.cpu.fetch.Cycles                             2                       # Number of cycles fetch has run and was not squashing or blocked
system.cpu.fetch.SquashCycles                       5                       # Number of cycles fetch has spent squashing
system.cpu.fetch.PendingDrainCycles                 3                       # Number of cycles fetch has spent waiting on pipes to drain
system.cpu.fetch.CacheLines                         3                       # Number of cache lines fetched
system.cpu.fetch.IcacheSquashes                     2                       # Number of outstanding Icache misses that were squashed
system.cpu.fetch.rateDist::samples                 26                       # Number of instructions fetched each cycle (Total)
system.cpu.fetch.rateDist::mean              0.346154                       # Number of instructions fetched each cycle (Total)
system.cpu.fetch.rateDist::stdev             1.573336                       # Number of instructions fetched each cycle (Total)
system.cpu.fetch.rateDist::underflows               0      0.00%      0.00% # Number of instructions fetched each cycle (Total)
system.cpu.fetch.rateDist::0                       24     92.31%     92.31% # Number of instructions fetched each cycle (Total)
system.cpu.fetch.rateDist::1                        1      3.85%     96.15% # Number of instructions fetched each cycle (Total)
system.cpu.fetch.rateDist::2                        0      0.00%     96.15% # Number of instructions fetched each cycle (Total)
system.cpu.fetch.rateDist::3                        0      0.00%     96.15% # Number of instructions fetched each cycle (Total)
system.cpu.fetch.rateDist::4                        0      0.00%     96.15% # Number of instructions fetched each cycle (Total)
system.cpu.fetch.rateDist::5                        0      0.00%     96.15% # Number of instructions fetched each cycle (Total)
system.cpu.fetch.rateDist::6                        0      0.00%     96.15% # Number of instructions fetched each cycle (Total)
system.cpu.fetch.rateDist::7                        0      0.00%     96.15% # Number of instructions fetched each cycle (Total)
system.cpu.fetch.rateDist::8                        1      3.85%    100.00% # Number of instructions fetched each cycle (Total)
system.cpu.fetch.rateDist::overflows                0      0.00%    100.00% # Number of instructions fetched each cycle (Total)
system.cpu.fetch.rateDist::min_value                0                       # Number of instructions fetched each cycle (Total)
system.cpu.fetch.rateDist::max_value                8                       # Number of instructions fetched each cycle (Total)
system.cpu.fetch.rateDist::total                   26                       # Number of instructions fetched each cycle (Total)
system.cpu.fetch.branchRate                  0.006085                       # Number of branch fetches per cycle
[...]
system.switch_cpus_1.iq.int_inst_queue_wakeup_accesses   1604450706                       # Number of integer instruction queue wakeup accesses
system.switch_cpus_1.iq.fp_inst_queue_reads    349940674                       # Number of floating instruction queue reads
system.switch_cpus_1.iq.fp_inst_queue_writes    556610973                       # Number of floating instruction queue writes
system.switch_cpus_1.iq.fp_inst_queue_wakeup_accesses    144292204                       # Number of floating instruction queue wakeup accesses
system.switch_cpus_1.iq.int_alu_accesses   1757874870                       # Number of integer alu accesses
system.switch_cpus_1.iq.fp_alu_accesses     176008035                       # Number of floating point alu accesses
system.switch_cpus_1.iew.lsq.thread0.forwLoads     46928761                       # Number of loads that had data forwarded from stores
system.switch_cpus_1.iew.lsq.thread0.invAddrLoads            0                       # Number of loads ignored due to an invalid address
system.switch_cpus_1.iew.lsq.thread0.squashedLoads    338402829                       # Number of loads squashed
system.switch_cpus_1.iew.lsq.thread0.ignoredResponses       153609                       # Number of memory responses ignored because the instruction is squashed
system.switch_cpus_1.iew.lsq.thread0.memOrderViolation        62040                       # Number of memory ordering violations
system.switch_cpus_1.iew.lsq.thread0.squashedStores    147975053                       # Number of stores squashed
system.switch_cpus_1.iew.lsq.thread0.invAddrSwpfs            0                       # Number of software prefetches ignored due to an invalid address
system.switch_cpus_1.iew.lsq.thread0.blockedLoads            0                       # Number of blocked loads due to partial load-store forwarding
system.switch_cpus_1.iew.lsq.thread0.rescheduledLoads         3741                       # Number of loads that were rescheduled
system.switch_cpus_1.iew.lsq.thread0.cacheBlocked     14763805                       # Number of times an access to memory failed due to the cache being blocked
system.switch_cpus_1.iew.iewIdleCycles              0                       # Number of cycles IEW is idle
system.switch_cpus_1.iew.iewSquashCycles     19177645                       # Number of cycles IEW is squashing
system.switch_cpus_1.iew.iewBlockCycles    1320710448                       # Number of cycles IEW is blocking
system.switch_cpus_1.iew.iewUnblockCycles    784808875                       # Number of cycles IEW is unblocking
system.switch_cpus_1.iew.iewDispatchedInsts   2434053724                       # Number of instructions dispatched to IQ
system.switch_cpus_1.iew.iewDispSquashedInsts       729439                       # Number of squashed instructions skipped by dispatch
system.switch_cpus_1.iew.iewDispLoadInsts    577034667                       # Number of dispatched load instructions
system.switch_cpus_1.iew.iewDispStoreInsts    293889865                       # Number of dispatched store instructions
system.switch_cpus_1.iew.iewDispNonSpecInsts      2694808                       # Number of dispatched non-speculative instructions
system.switch_cpus_1.iew.iewIQFullEvents      6451951                       # Number of times the IQ has become full, causing a stall
system.switch_cpus_1.iew.iewLSQFullEvents    776919168                       # Number of times the LSQ has become full, causing a stall
system.switch_cpus_1.iew.memOrderViolationEvents        62040                       # Number of memory order violations
system.switch_cpus_1.iew.predictedTakenIncorrect      3943972                       # Number of branches that were predicted taken incorrectly
system.switch_cpus_1.iew.predictedNotTakenIncorrect      5720311                       # Number of branches that were predicted not taken incorrectly
system.switch_cpus_1.iew.branchMispredicts      9664283                       # Number of branch mispredicts detected at execute
system.switch_cpus_1.iew.iewExecutedInsts   1877339429                       # Number of executed instructions
system.switch_cpus_1.iew.iewExecLoadInsts    511847927                       # Number of load instructions executed
system.switch_cpus_1.iew.iewExecSquashedInsts     21032275                       # Number of squashed instructions skipped in execute
system.switch_cpus_1.iew.exec_swp                   0                       # number of swp insts executed
system.switch_cpus_1.iew.exec_nop           117425095                       # number of nop insts executed
system.switch_cpus_1.iew.exec_refs          773050455                       # number of memory reference insts executed
system.switch_cpus_1.iew.exec_branches      364101394                       # Number of branches executed
system.switch_cpus_1.iew.exec_stores        261202528                       # Number of stores executed
system.switch_cpus_1.iew.exec_rate           0.338936                       # Inst execution rate
system.switch_cpus_1.iew.wb_sent           1848562044                       # cumulative count of insts sent to commit
system.switch_cpus_1.iew.wb_count          1748742910                       # cumulative count of insts written-back
system.switch_cpus_1.iew.wb_producers       882710822                       # num instructions producing a value
system.switch_cpus_1.iew.wb_consumers      1292572092                       # num instructions consuming a value
system.switch_cpus_1.iew.wb_rate             0.315720                       # insts written-back per cycle
system.switch_cpus_1.iew.wb_fanout           0.682910                       # average fanout of values written-back
system.switch_cpus_1.commit.commitSquashedInsts   1149850004                       # The number of squashed insts skipped by commit
system.switch_cpus_1.commit.commitNonSpecStalls      3363580                       # The number of times commit has been forced to stall to communicate backwards
system.switch_cpus_1.commit.branchMispredicts      7379071                       # The number of times a branch was mispredicted
system.switch_cpus_1.commit.committed_per_cycle::samples   5363639599                       # Number of insts commited each cycle
system.switch_cpus_1.commit.committed_per_cycle::mean     0.199158                       # Number of insts commited each cycle
system.switch_cpus_1.commit.committed_per_cycle::stdev     1.090035                       # Number of insts commited each cycle
system.switch_cpus_1.commit.committed_per_cycle::underflows            0      0.00%      0.00% # Number of insts commited each cycle
system.switch_cpus_1.commit.committed_per_cycle::0   5092529843     94.95%     94.95% # Number of insts commited each cycle
system.switch_cpus_1.commit.committed_per_cycle::1     99335253      1.85%     96.80% # Number of insts commited each cycle
system.switch_cpus_1.commit.committed_per_cycle::2     30152244      0.56%     97.36% # Number of insts commited each cycle
system.switch_cpus_1.commit.committed_per_cycle::3     18766028      0.35%     97.71% # Number of insts commited each cycle
system.switch_cpus_1.commit.committed_per_cycle::4     16428406      0.31%     98.02% # Number of insts commited each cycle
system.switch_cpus_1.commit.committed_per_cycle::5     12756920      0.24%     98.25% # Number of insts commited each cycle
system.switch_cpus_1.commit.committed_per_cycle::6      9499646      0.18%     98.43% # Number of insts commited each cycle
system.switch_cpus_1.commit.committed_per_cycle::7      7591519      0.14%     98.57% # Number of insts commited each cycle
system.switch_cpus_1.commit.committed_per_cycle::8     76579740      1.43%    100.00% # Number of insts commited each cycle
system.switch_cpus_1.commit.committed_per_cycle::overflows            0      0.00%    100.00% # Number of insts commited each cycle
system.switch_cpus_1.commit.committed_per_cycle::min_value            0                       # Number of insts commited each cycle
system.switch_cpus_1.commit.committed_per_cycle::max_value            8                       # Number of insts commited each cycle
system.switch_cpus_1.commit.committed_per_cycle::total   5363639599                       # Number of insts commited each cycle
system.switch_cpus_1.commit.committedInsts   1068212478                       # Number of instructions committed
system.switch_cpus_1.commit.committedOps   1068212478                       # Number of ops (including micro ops) committed
system.switch_cpus_1.commit.swp_count               0                       # Number of s/w prefetches committed
system.switch_cpus_1.commit.refs            384546642                       # Number of memory references committed
system.switch_cpus_1.commit.loads           238631831                       # Number of loads committed
system.switch_cpus_1.commit.membars           1681789                       # Number of memory barriers committed
system.switch_cpus_1.commit.branches        214623210                       # Number of branches committed
system.switch_cpus_1.commit.fp_insts         96546625                       # Number of committed floating point instructions.
system.switch_cpus_1.commit.int_insts       925707265                       # Number of committed integer instructions.
system.switch_cpus_1.commit.function_calls     31504738                       # Number of function calls committed.
system.switch_cpus_1.commit.op_class_0::No_OpClass     69090040      6.47%      6.47% # Class of committed instruction
system.switch_cpus_1.commit.op_class_0::IntAlu    554848205     51.94%     58.41% # Class of committed instruction
system.switch_cpus_1.commit.op_class_0::IntMult       439340      0.04%     58.45% # Class of committed instruction
system.switch_cpus_1.commit.op_class_0::IntDiv            0      0.00%     58.45% # Class of committed instruction
system.switch_cpus_1.commit.op_class_0::FloatAdd     31535281      2.95%     61.40% # Class of committed instruction
system.switch_cpus_1.commit.op_class_0::FloatCmp     23564610      2.21%     63.61% # Class of committed instruction
system.switch_cpus_1.commit.op_class_0::FloatCvt      1798819      0.17%     63.78% # Class of committed instruction
system.switch_cpus_1.commit.op_class_0::FloatMult       268620      0.03%     63.80% # Class of committed instruction
system.switch_cpus_1.commit.op_class_0::FloatMultAcc            0      0.00%     63.80% # Class of committed instruction
system.switch_cpus_1.commit.op_class_0::FloatDiv       439041      0.04%     63.84% # Class of committed instruction
system.switch_cpus_1.commit.op_class_0::FloatMisc            0      0.00%     63.84% # Class of committed instruction
system.switch_cpus_1.commit.op_class_0::FloatSqrt           91      0.00%     63.84% # Class of committed instruction
system.switch_cpus_1.commit.op_class_0::SimdAdd            0      0.00%     63.84% # Class of committed instruction
system.switch_cpus_1.commit.op_class_0::SimdAddAcc            0      0.00%     63.84% # Class of committed instruction
system.switch_cpus_1.commit.op_class_0::SimdAlu            0      0.00%     63.84% # Class of committed instruction
system.switch_cpus_1.commit.op_class_0::SimdCmp            0      0.00%     63.84% # Class of committed instruction
system.switch_cpus_1.commit.op_class_0::SimdCvt            0      0.00%     63.84% # Class of committed instruction
system.switch_cpus_1.commit.op_class_0::SimdMisc            0      0.00%     63.84% # Class of committed instruction
system.switch_cpus_1.commit.op_class_0::SimdMult            0      0.00%     63.84% # Class of committed instruction
system.switch_cpus_1.commit.op_class_0::SimdMultAcc            0      0.00%     63.84% # Class of committed instruction
system.switch_cpus_1.commit.op_class_0::SimdShift            0      0.00%     63.84% # Class of committed instruction
system.switch_cpus_1.commit.op_class_0::SimdShiftAcc            0      0.00%     63.84% # Class of committed instruction
system.switch_cpus_1.commit.op_class_0::SimdSqrt            0      0.00%     63.84% # Class of committed instruction
system.switch_cpus_1.commit.op_class_0::SimdFloatAdd            0      0.00%     63.84% # Class of committed instruction
system.switch_cpus_1.commit.op_class_0::SimdFloatAlu            0      0.00%     63.84% # Class of committed instruction
system.switch_cpus_1.commit.op_class_0::SimdFloatCmp            0      0.00%     63.84% # Class of committed instruction
system.switch_cpus_1.commit.op_class_0::SimdFloatCvt            0      0.00%     63.84% # Class of committed instruction
system.switch_cpus_1.commit.op_class_0::SimdFloatDiv            0      0.00%     63.84% # Class of committed instruction
system.switch_cpus_1.commit.op_class_0::SimdFloatMisc            0      0.00%     63.84% # Class of committed instruction
system.switch_cpus_1.commit.op_class_0::SimdFloatMult            0      0.00%     63.84% # Class of committed instruction
system.switch_cpus_1.commit.op_class_0::SimdFloatMultAcc            0      0.00%     63.84% # Class of committed instruction
system.switch_cpus_1.commit.op_class_0::SimdFloatSqrt            0      0.00%     63.84% # Class of committed instruction
system.switch_cpus_1.commit.op_class_0::MemRead    209928607     19.65%     83.50% # Class of committed instruction
system.switch_cpus_1.commit.op_class_0::MemWrite    137359661     12.86%     96.35% # Class of committed instruction
system.switch_cpus_1.commit.op_class_0::FloatMemRead     30385013      2.84%     99.20% # Class of committed instruction
system.switch_cpus_1.commit.op_class_0::FloatMemWrite      8555150      0.80%    100.00% # Class of committed instruction
system.switch_cpus_1.commit.op_class_0::IprAccess            0      0.00%    100.00% # Class of committed instruction
system.switch_cpus_1.commit.op_class_0::InstPrefetch            0      0.00%    100.00% # Class of committed instruction
system.switch_cpus_1.commit.op_class_0::total   1068212478                       # Class of committed instruction
system.switch_cpus_1.commit.bw_lim_events     76579740                       # number cycles where commit BW limit reached
system.switch_cpus_1.rob.rob_reads         7352372406                       # The number of ROB reads
system.switch_cpus_1.rob.rob_writes        4595491871                       # The number of ROB writes
system.switch_cpus_1.timesIdled                152942                       # Number of times that the entire CPU went into an idle state and unscheduled itself
system.switch_cpus_1.idleCycles              16195426                       # Total number of cycles that the CPU has spent unscheduled due to idling
system.switch_cpus_1.committedInsts        1000000004                       # Number of Instructions Simulated
system.switch_cpus_1.committedOps          1000000004                       # Number of Ops (including micro ops) Simulated
system.switch_cpus_1.cpi                     5.538913                       # CPI: Cycles Per Instruction
system.switch_cpus_1.cpi_total               5.538913                       # CPI: Total CPI of All Threads
system.switch_cpus_1.ipc                     0.180541                       # IPC: Instructions Per Cycle
system.switch_cpus_1.ipc_total               0.180541                       # IPC: Total IPC of All Threads
system.switch_cpus_1.int_regfile_reads     2377489705                       # number of integer regfile reads
system.switch_cpus_1.int_regfile_writes    1095706319                       # number of integer regfile writes
system.switch_cpus_1.fp_regfile_reads       132298570                       # number of floating regfile reads
system.switch_cpus_1.fp_regfile_writes       99410691                       # number of floating regfile writes
system.switch_cpus_1.misc_regfile_reads       4667536                       # number of misc regfile reads
system.switch_cpus_1.misc_regfile_writes      3802360                       # number of misc regfile writes
system.tol3bus.snoop_filter.tot_requests     76623824                       # Total number of requests made to the snoop filter.
system.tol3bus.snoop_filter.hit_single_requests     38312895                       # Number of requests hitting in the snoop filter with a single holder of the requested data.
system.tol3bus.snoop_filter.hit_multi_requests            0                       # Number of requests hitting in the snoop filter with multiple (>1) holders of the requested data.
system.tol3bus.snoop_filter.tot_snoops        7697040                       # Total number of snoops made to the snoop filter.
system.tol3bus.snoop_filter.hit_single_snoops      7697040                       # Number of snoops hitting in the snoop filter with a single holder of the requested data.
system.tol3bus.snoop_filter.hit_multi_snoops            0                       # Number of snoops hitting in the snoop filter with multiple (>1) holders of the requested data.
system.tol3bus.pwrStateResidencyTicks::UNDEFINED 132194846047779                       # Cumulative time (in ticks) in various power states
system.tol3bus.trans_dist::ReadResp          32838120                       # Transaction distribution
system.tol3bus.trans_dist::WritebackDirty     29381975                       # Transaction distribution
system.tol3bus.trans_dist::CleanEvict        39047859                       # Transaction distribution
system.tol3bus.trans_dist::UpgradeReq            2320                       # Transaction distribution
system.tol3bus.trans_dist::UpgradeResp           2320                       # Transaction distribution
system.tol3bus.trans_dist::ReadExReq          5472809                       # Transaction distribution
system.tol3bus.trans_dist::ReadExResp         5472809                       # Transaction distribution
system.tol3bus.trans_dist::ReadSharedReq     32838120                       # Transaction distribution
system.tol3bus.pkt_count_system.cpu.l2.mem_side::system.l3.cpu_side    114937073                       # Packet count per connected master and slave (bytes)
system.tol3bus.pkt_size_system.cpu.l2.mem_side::system.l3.cpu_side   3617550336                       # Cumulative packet size per connected master and slave (bytes)
system.tol3bus.snoops                        30119259                       # Total snoops (count)
system.tol3bus.snoopTraffic                 714795520                       # Total snoop traffic (bytes)
system.tol3bus.snoop_fanout::samples         68432508                       # Request fanout histogram
system.tol3bus.snoop_fanout::mean            0.112476                       # Request fanout histogram
system.tol3bus.snoop_fanout::stdev           0.315952                       # Request fanout histogram
system.tol3bus.snoop_fanout::underflows             0      0.00%      0.00% # Request fanout histogram
system.tol3bus.snoop_fanout::0               60735468     88.75%     88.75% # Request fanout histogram
system.tol3bus.snoop_fanout::1                7697040     11.25%    100.00% # Request fanout histogram
system.tol3bus.snoop_fanout::overflows              0      0.00%    100.00% # Request fanout histogram
system.tol3bus.snoop_fanout::min_value              0                       # Request fanout histogram
system.tol3bus.snoop_fanout::max_value              1                       # Request fanout histogram
system.tol3bus.snoop_fanout::total           68432508                       # Request fanout histogram
system.tol3bus.reqLayer0.occupancy        31580760627                       # Layer occupancy (ticks)
system.tol3bus.reqLayer0.utilization              0.6                       # Layer utilization (%)
system.tol3bus.respLayer0.occupancy       25515851274                       # Layer occupancy (ticks)
system.tol3bus.respLayer0.utilization             0.5                       # Layer utilization (%)

---------- End Simulation Statistics   ----------
