
---------- Begin Simulation Statistics ----------
sim_seconds                                  1.012602                       # Number of seconds simulated
sim_ticks                                1012602495888                       # Number of ticks simulated
final_tick                               310860484380297                       # Number of ticks from beginning of simulation (restored from checkpoints and never reset)
sim_freq                                 1000000000000                       # Frequency of simulated ticks
host_inst_rate                                 585973                       # Simulator instruction rate (inst/s)
host_op_rate                                   585973                       # Simulator op (including micro ops) rate (op/s)
host_tick_rate                              494465109                       # Simulator tick rate (ticks/s)
host_mem_usage                                2399560                       # Number of bytes of host memory used
host_seconds                                  2047.87                       # Real time elapsed on the host
sim_insts                                  1200000007                       # Number of instructions simulated
sim_ops                                    1200000007                       # Number of ops (including micro ops) simulated
system.voltage_domain.voltage                       1                       # Voltage in Volts
system.clk_domain.clock                          1000                       # Clock period in ticks
system.mem_ctrls0.pwrStateResidencyTicks::UNDEFINED 310860484380297                       # Cumulative time (in ticks) in various power states
system.mem_ctrls0.bytes_read::cpu.inst             64                       # Number of bytes read from this memory
system.mem_ctrls0.bytes_read::switch_cpus.inst        24832                       # Number of bytes read from this memory
system.mem_ctrls0.bytes_read::switch_cpus.data      2623168                       # Number of bytes read from this memory
system.mem_ctrls0.bytes_read::switch_cpus_1.inst         8320                       # Number of bytes read from this memory
system.mem_ctrls0.bytes_read::switch_cpus_1.data       344128                       # Number of bytes read from this memory
system.mem_ctrls0.bytes_read::total           3000512                       # Number of bytes read from this memory
system.mem_ctrls0.bytes_inst_read::cpu.inst           64                       # Number of instructions bytes read from this memory
system.mem_ctrls0.bytes_inst_read::switch_cpus.inst        24832                       # Number of instructions bytes read from this memory
system.mem_ctrls0.bytes_inst_read::switch_cpus_1.inst         8320                       # Number of instructions bytes read from this memory
system.mem_ctrls0.bytes_inst_read::total        33216                       # Number of instructions bytes read from this memory
system.mem_ctrls0.bytes_written::writebacks       152320                       # Number of bytes written to this memory
system.mem_ctrls0.bytes_written::total         152320                       # Number of bytes written to this memory
system.mem_ctrls0.num_reads::cpu.inst               1                       # Number of read requests responded to by this memory
system.mem_ctrls0.num_reads::switch_cpus.inst          388                       # Number of read requests responded to by this memory
system.mem_ctrls0.num_reads::switch_cpus.data        40987                       # Number of read requests responded to by this memory
system.mem_ctrls0.num_reads::switch_cpus_1.inst          130                       # Number of read requests responded to by this memory
system.mem_ctrls0.num_reads::switch_cpus_1.data         5377                       # Number of read requests responded to by this memory
system.mem_ctrls0.num_reads::total              46883                       # Number of read requests responded to by this memory
system.mem_ctrls0.num_writes::writebacks         2380                       # Number of write requests responded to by this memory
system.mem_ctrls0.num_writes::total              2380                       # Number of write requests responded to by this memory
system.mem_ctrls0.bw_read::cpu.inst                63                       # Total read bandwidth from this memory (bytes/s)
system.mem_ctrls0.bw_read::switch_cpus.inst        24523                       # Total read bandwidth from this memory (bytes/s)
system.mem_ctrls0.bw_read::switch_cpus.data      2590521                       # Total read bandwidth from this memory (bytes/s)
system.mem_ctrls0.bw_read::switch_cpus_1.inst         8216                       # Total read bandwidth from this memory (bytes/s)
system.mem_ctrls0.bw_read::switch_cpus_1.data       339845                       # Total read bandwidth from this memory (bytes/s)
system.mem_ctrls0.bw_read::total              2963169                       # Total read bandwidth from this memory (bytes/s)
system.mem_ctrls0.bw_inst_read::cpu.inst           63                       # Instruction read bandwidth from this memory (bytes/s)
system.mem_ctrls0.bw_inst_read::switch_cpus.inst        24523                       # Instruction read bandwidth from this memory (bytes/s)
system.mem_ctrls0.bw_inst_read::switch_cpus_1.inst         8216                       # Instruction read bandwidth from this memory (bytes/s)
system.mem_ctrls0.bw_inst_read::total           32803                       # Instruction read bandwidth from this memory (bytes/s)
system.mem_ctrls0.bw_write::writebacks         150424                       # Write bandwidth from this memory (bytes/s)
system.mem_ctrls0.bw_write::total              150424                       # Write bandwidth from this memory (bytes/s)
system.mem_ctrls0.bw_total::writebacks         150424                       # Total bandwidth to/from this memory (bytes/s)
system.mem_ctrls0.bw_total::cpu.inst               63                       # Total bandwidth to/from this memory (bytes/s)
system.mem_ctrls0.bw_total::switch_cpus.inst        24523                       # Total bandwidth to/from this memory (bytes/s)
system.mem_ctrls0.bw_total::switch_cpus.data      2590521                       # Total bandwidth to/from this memory (bytes/s)
system.mem_ctrls0.bw_total::switch_cpus_1.inst         8216                       # Total bandwidth to/from this memory (bytes/s)
system.mem_ctrls0.bw_total::switch_cpus_1.data       339845                       # Total bandwidth to/from this memory (bytes/s)
system.mem_ctrls0.bw_total::total             3113593                       # Total bandwidth to/from this memory (bytes/s)
system.mem_ctrls0.readReqs                      46883                       # Number of read requests accepted
system.mem_ctrls0.writeReqs                      2380                       # Number of write requests accepted
system.mem_ctrls0.readBursts                    46883                       # Number of DRAM read bursts, including those serviced by the write queue
system.mem_ctrls0.writeBursts                    2380                       # Number of DRAM write bursts, including those merged in the write queue
system.mem_ctrls0.bytesReadDRAM               2991552                       # Total number of bytes read from DRAM
system.mem_ctrls0.bytesReadWrQ                   8960                       # Total number of bytes read from write queue
system.mem_ctrls0.bytesWritten                 150272                       # Total number of bytes written to DRAM
system.mem_ctrls0.bytesReadSys                3000512                       # Total read bytes from the system interface side
system.mem_ctrls0.bytesWrittenSys              152320                       # Total written bytes from the system interface side
system.mem_ctrls0.servicedByWrQ                   140                       # Number of DRAM read bursts serviced by the write queue
system.mem_ctrls0.mergedWrBursts                    0                       # Number of DRAM write bursts merged with an existing one
system.mem_ctrls0.neitherReadNorWriteReqs            0                       # Number of requests that are neither read nor write
system.mem_ctrls0.perBankRdBursts::0             3139                       # Per bank write bursts
system.mem_ctrls0.perBankRdBursts::1             3062                       # Per bank write bursts
system.mem_ctrls0.perBankRdBursts::2             2862                       # Per bank write bursts
system.mem_ctrls0.perBankRdBursts::3             2757                       # Per bank write bursts
system.mem_ctrls0.perBankRdBursts::4             2680                       # Per bank write bursts
system.mem_ctrls0.perBankRdBursts::5             2780                       # Per bank write bursts
system.mem_ctrls0.perBankRdBursts::6             2989                       # Per bank write bursts
system.mem_ctrls0.perBankRdBursts::7             3194                       # Per bank write bursts
system.mem_ctrls0.perBankRdBursts::8             3343                       # Per bank write bursts
system.mem_ctrls0.perBankRdBursts::9             3254                       # Per bank write bursts
system.mem_ctrls0.perBankRdBursts::10            2832                       # Per bank write bursts
system.mem_ctrls0.perBankRdBursts::11            2595                       # Per bank write bursts
system.mem_ctrls0.perBankRdBursts::12            2688                       # Per bank write bursts
system.mem_ctrls0.perBankRdBursts::13            2699                       # Per bank write bursts
system.mem_ctrls0.perBankRdBursts::14            2946                       # Per bank write bursts
system.mem_ctrls0.perBankRdBursts::15            2923                       # Per bank write bursts
system.mem_ctrls0.perBankWrBursts::0              310                       # Per bank write bursts
system.mem_ctrls0.perBankWrBursts::1              322                       # Per bank write bursts
system.mem_ctrls0.perBankWrBursts::2              116                       # Per bank write bursts
system.mem_ctrls0.perBankWrBursts::3               79                       # Per bank write bursts
system.mem_ctrls0.perBankWrBursts::4               68                       # Per bank write bursts
system.mem_ctrls0.perBankWrBursts::5               17                       # Per bank write bursts
system.mem_ctrls0.perBankWrBursts::6              124                       # Per bank write bursts
system.mem_ctrls0.perBankWrBursts::7              133                       # Per bank write bursts
system.mem_ctrls0.perBankWrBursts::8              190                       # Per bank write bursts
system.mem_ctrls0.perBankWrBursts::9              251                       # Per bank write bursts
system.mem_ctrls0.perBankWrBursts::10             107                       # Per bank write bursts
system.mem_ctrls0.perBankWrBursts::11              51                       # Per bank write bursts
system.mem_ctrls0.perBankWrBursts::12              45                       # Per bank write bursts
system.mem_ctrls0.perBankWrBursts::13              48                       # Per bank write bursts
system.mem_ctrls0.perBankWrBursts::14             225                       # Per bank write bursts
system.mem_ctrls0.perBankWrBursts::15             262                       # Per bank write bursts
system.mem_ctrls0.numRdRetry                        0                       # Number of times read queue was full causing retry
system.mem_ctrls0.numWrRetry                        0                       # Number of times write queue was full causing retry
system.mem_ctrls0.totGap                 1012602449268                       # Total gap between requests
system.mem_ctrls0.readPktSize::0                    0                       # Read request sizes (log2)
system.mem_ctrls0.readPktSize::1                    0                       # Read request sizes (log2)
system.mem_ctrls0.readPktSize::2                    0                       # Read request sizes (log2)
system.mem_ctrls0.readPktSize::3                    0                       # Read request sizes (log2)
system.mem_ctrls0.readPktSize::4                    0                       # Read request sizes (log2)
system.mem_ctrls0.readPktSize::5                    0                       # Read request sizes (log2)
system.mem_ctrls0.readPktSize::6                46883                       # Read request sizes (log2)
system.mem_ctrls0.writePktSize::0                   0                       # Write request sizes (log2)
system.mem_ctrls0.writePktSize::1                   0                       # Write request sizes (log2)
system.mem_ctrls0.writePktSize::2                   0                       # Write request sizes (log2)
system.mem_ctrls0.writePktSize::3                   0                       # Write request sizes (log2)
system.mem_ctrls0.writePktSize::4                   0                       # Write request sizes (log2)
system.mem_ctrls0.writePktSize::5                   0                       # Write request sizes (log2)
system.mem_ctrls0.writePktSize::6                2380                       # Write request sizes (log2)
system.mem_ctrls0.rdQLenPdf::0                  45641                       # What read queue length does an incoming req see
system.mem_ctrls0.rdQLenPdf::1                   1096                       # What read queue length does an incoming req see
system.mem_ctrls0.rdQLenPdf::2                      4                       # What read queue length does an incoming req see
system.mem_ctrls0.rdQLenPdf::3                      2                       # What read queue length does an incoming req see
system.mem_ctrls0.rdQLenPdf::4                      0                       # What read queue length does an incoming req see
system.mem_ctrls0.rdQLenPdf::5                      0                       # What read queue length does an incoming req see
system.mem_ctrls0.rdQLenPdf::6                      0                       # What read queue length does an incoming req see
system.mem_ctrls0.rdQLenPdf::7                      0                       # What read queue length does an incoming req see
system.mem_ctrls0.rdQLenPdf::8                      0                       # What read queue length does an incoming req see
system.mem_ctrls0.rdQLenPdf::9                      0                       # What read queue length does an incoming req see
system.mem_ctrls0.rdQLenPdf::10                     0                       # What read queue length does an incoming req see
system.mem_ctrls0.rdQLenPdf::11                     0                       # What read queue length does an incoming req see
system.mem_ctrls0.rdQLenPdf::12                     0                       # What read queue length does an incoming req see
system.mem_ctrls0.rdQLenPdf::13                     0                       # What read queue length does an incoming req see
system.mem_ctrls0.rdQLenPdf::14                     0                       # What read queue length does an incoming req see
system.mem_ctrls0.rdQLenPdf::15                     0                       # What read queue length does an incoming req see
system.mem_ctrls0.rdQLenPdf::16                     0                       # What read queue length does an incoming req see
system.mem_ctrls0.rdQLenPdf::17                     0                       # What read queue length does an incoming req see
system.mem_ctrls0.rdQLenPdf::18                     0                       # What read queue length does an incoming req see
system.mem_ctrls0.rdQLenPdf::19                     0                       # What read queue length does an incoming req see
system.mem_ctrls0.rdQLenPdf::20                     0                       # What read queue length does an incoming req see
system.mem_ctrls0.rdQLenPdf::21                     0                       # What read queue length does an incoming req see
system.mem_ctrls0.rdQLenPdf::22                     0                       # What read queue length does an incoming req see
system.mem_ctrls0.rdQLenPdf::23                     0                       # What read queue length does an incoming req see
system.mem_ctrls0.rdQLenPdf::24                     0                       # What read queue length does an incoming req see
system.mem_ctrls0.rdQLenPdf::25                     0                       # What read queue length does an incoming req see
system.mem_ctrls0.rdQLenPdf::26                     0                       # What read queue length does an incoming req see
system.mem_ctrls0.rdQLenPdf::27                     0                       # What read queue length does an incoming req see
system.mem_ctrls0.rdQLenPdf::28                     0                       # What read queue length does an incoming req see
system.mem_ctrls0.rdQLenPdf::29                     0                       # What read queue length does an incoming req see
system.mem_ctrls0.rdQLenPdf::30                     0                       # What read queue length does an incoming req see
system.mem_ctrls0.rdQLenPdf::31                     0                       # What read queue length does an incoming req see
system.mem_ctrls0.wrQLenPdf::0                      2                       # What write queue length does an incoming req see
system.mem_ctrls0.wrQLenPdf::1                      2                       # What write queue length does an incoming req see
system.mem_ctrls0.wrQLenPdf::2                      2                       # What write queue length does an incoming req see
system.mem_ctrls0.wrQLenPdf::3                      2                       # What write queue length does an incoming req see
system.mem_ctrls0.wrQLenPdf::4                      2                       # What write queue length does an incoming req see
system.mem_ctrls0.wrQLenPdf::5                      2                       # What write queue length does an incoming req see
system.mem_ctrls0.wrQLenPdf::6                      2                       # What write queue length does an incoming req see
system.mem_ctrls0.wrQLenPdf::7                      2                       # What write queue length does an incoming req see
system.mem_ctrls0.wrQLenPdf::8                      2                       # What write queue length does an incoming req see
system.mem_ctrls0.wrQLenPdf::9                      2                       # What write queue length does an incoming req see
system.mem_ctrls0.wrQLenPdf::10                     2                       # What write queue length does an incoming req see
system.mem_ctrls0.wrQLenPdf::11                     2                       # What write queue length does an incoming req see
system.mem_ctrls0.wrQLenPdf::12                     2                       # What write queue length does an incoming req see
system.mem_ctrls0.wrQLenPdf::13                     2                       # What write queue length does an incoming req see
system.mem_ctrls0.wrQLenPdf::14                     2                       # What write queue length does an incoming req see
system.mem_ctrls0.wrQLenPdf::15                    95                       # What write queue length does an incoming req see
system.mem_ctrls0.wrQLenPdf::16                    95                       # What write queue length does an incoming req see
system.mem_ctrls0.wrQLenPdf::17                   128                       # What write queue length does an incoming req see
system.mem_ctrls0.wrQLenPdf::18                   133                       # What write queue length does an incoming req see
system.mem_ctrls0.wrQLenPdf::19                   135                       # What write queue length does an incoming req see
system.mem_ctrls0.wrQLenPdf::20                   136                       # What write queue length does an incoming req see
system.mem_ctrls0.wrQLenPdf::21                   137                       # What write queue length does an incoming req see
system.mem_ctrls0.wrQLenPdf::22                   136                       # What write queue length does an incoming req see
system.mem_ctrls0.wrQLenPdf::23                   135                       # What write queue length does an incoming req see
system.mem_ctrls0.wrQLenPdf::24                   135                       # What write queue length does an incoming req see
system.mem_ctrls0.wrQLenPdf::25                   136                       # What write queue length does an incoming req see
system.mem_ctrls0.wrQLenPdf::26                   137                       # What write queue length does an incoming req see
system.mem_ctrls0.wrQLenPdf::27                   136                       # What write queue length does an incoming req see
system.mem_ctrls0.wrQLenPdf::28                   136                       # What write queue length does an incoming req see
system.mem_ctrls0.wrQLenPdf::29                   137                       # What write queue length does an incoming req see
system.mem_ctrls0.wrQLenPdf::30                   136                       # What write queue length does an incoming req see
system.mem_ctrls0.wrQLenPdf::31                   133                       # What write queue length does an incoming req see
system.mem_ctrls0.wrQLenPdf::32                   132                       # What write queue length does an incoming req see
system.mem_ctrls0.wrQLenPdf::33                     1                       # What write queue length does an incoming req see
system.mem_ctrls0.wrQLenPdf::34                     1                       # What write queue length does an incoming req see
system.mem_ctrls0.wrQLenPdf::35                     0                       # What write queue length does an incoming req see
system.mem_ctrls0.wrQLenPdf::36                     0                       # What write queue length does an incoming req see
system.mem_ctrls0.wrQLenPdf::37                     0                       # What write queue length does an incoming req see
system.mem_ctrls0.wrQLenPdf::38                     0                       # What write queue length does an incoming req see
system.mem_ctrls0.wrQLenPdf::39                     0                       # What write queue length does an incoming req see
system.mem_ctrls0.wrQLenPdf::40                     0                       # What write queue length does an incoming req see
system.mem_ctrls0.wrQLenPdf::41                     0                       # What write queue length does an incoming req see
system.mem_ctrls0.wrQLenPdf::42                     0                       # What write queue length does an incoming req see
system.mem_ctrls0.wrQLenPdf::43                     0                       # What write queue length does an incoming req see
system.mem_ctrls0.wrQLenPdf::44                     0                       # What write queue length does an incoming req see
system.mem_ctrls0.wrQLenPdf::45                     0                       # What write queue length does an incoming req see
system.mem_ctrls0.wrQLenPdf::46                     0                       # What write queue length does an incoming req see
system.mem_ctrls0.wrQLenPdf::47                     0                       # What write queue length does an incoming req see
system.mem_ctrls0.wrQLenPdf::48                     0                       # What write queue length does an incoming req see
system.mem_ctrls0.wrQLenPdf::49                     0                       # What write queue length does an incoming req see
system.mem_ctrls0.wrQLenPdf::50                     0                       # What write queue length does an incoming req see
system.mem_ctrls0.wrQLenPdf::51                     0                       # What write queue length does an incoming req see
system.mem_ctrls0.wrQLenPdf::52                     0                       # What write queue length does an incoming req see
system.mem_ctrls0.wrQLenPdf::53                     0                       # What write queue length does an incoming req see
system.mem_ctrls0.wrQLenPdf::54                     0                       # What write queue length does an incoming req see
system.mem_ctrls0.wrQLenPdf::55                     0                       # What write queue length does an incoming req see
system.mem_ctrls0.wrQLenPdf::56                     0                       # What write queue length does an incoming req see
system.mem_ctrls0.wrQLenPdf::57                     0                       # What write queue length does an incoming req see
system.mem_ctrls0.wrQLenPdf::58                     0                       # What write queue length does an incoming req see
system.mem_ctrls0.wrQLenPdf::59                     0                       # What write queue length does an incoming req see
system.mem_ctrls0.wrQLenPdf::60                     0                       # What write queue length does an incoming req see
system.mem_ctrls0.wrQLenPdf::61                     0                       # What write queue length does an incoming req see
system.mem_ctrls0.wrQLenPdf::62                     0                       # What write queue length does an incoming req see
system.mem_ctrls0.wrQLenPdf::63                     0                       # What write queue length does an incoming req see
system.mem_ctrls0.bytesPerActivate::samples        24046                       # Bytes accessed per row activation
system.mem_ctrls0.bytesPerActivate::mean   130.634950                       # Bytes accessed per row activation
system.mem_ctrls0.bytesPerActivate::gmean   114.842719                       # Bytes accessed per row activation
system.mem_ctrls0.bytesPerActivate::stdev   112.069508                       # Bytes accessed per row activation
system.mem_ctrls0.bytesPerActivate::0-127         5612     23.34%     23.34% # Bytes accessed per row activation
system.mem_ctrls0.bytesPerActivate::128-255        17595     73.17%     96.51% # Bytes accessed per row activation
system.mem_ctrls0.bytesPerActivate::256-383          235      0.98%     97.49% # Bytes accessed per row activation
system.mem_ctrls0.bytesPerActivate::384-511          138      0.57%     98.06% # Bytes accessed per row activation
system.mem_ctrls0.bytesPerActivate::512-639           88      0.37%     98.43% # Bytes accessed per row activation
system.mem_ctrls0.bytesPerActivate::640-767           72      0.30%     98.73% # Bytes accessed per row activation
system.mem_ctrls0.bytesPerActivate::768-895           42      0.17%     98.90% # Bytes accessed per row activation
system.mem_ctrls0.bytesPerActivate::896-1023           25      0.10%     99.01% # Bytes accessed per row activation
system.mem_ctrls0.bytesPerActivate::1024-1151          239      0.99%    100.00% # Bytes accessed per row activation
system.mem_ctrls0.bytesPerActivate::total        24046                       # Bytes accessed per row activation
system.mem_ctrls0.rdPerTurnAround::samples          133                       # Reads before turning the bus around for writes
system.mem_ctrls0.rdPerTurnAround::mean    351.451128                       # Reads before turning the bus around for writes
system.mem_ctrls0.rdPerTurnAround::stdev  3362.265978                       # Reads before turning the bus around for writes
system.mem_ctrls0.rdPerTurnAround::0-2047          132     99.25%     99.25% # Reads before turning the bus around for writes
system.mem_ctrls0.rdPerTurnAround::36864-38911            1      0.75%    100.00% # Reads before turning the bus around for writes
system.mem_ctrls0.rdPerTurnAround::total          133                       # Reads before turning the bus around for writes
system.mem_ctrls0.wrPerTurnAround::samples          133                       # Writes before turning the bus around for reads
system.mem_ctrls0.wrPerTurnAround::mean     17.654135                       # Writes before turning the bus around for reads
system.mem_ctrls0.wrPerTurnAround::gmean    17.602597                       # Writes before turning the bus around for reads
system.mem_ctrls0.wrPerTurnAround::stdev     1.425127                       # Writes before turning the bus around for reads
system.mem_ctrls0.wrPerTurnAround::16              38     28.57%     28.57% # Writes before turning the bus around for reads
system.mem_ctrls0.wrPerTurnAround::17               1      0.75%     29.32% # Writes before turning the bus around for reads
system.mem_ctrls0.wrPerTurnAround::18              76     57.14%     86.47% # Writes before turning the bus around for reads
system.mem_ctrls0.wrPerTurnAround::19              14     10.53%     96.99% # Writes before turning the bus around for reads
system.mem_ctrls0.wrPerTurnAround::20               2      1.50%     98.50% # Writes before turning the bus around for reads
system.mem_ctrls0.wrPerTurnAround::21               1      0.75%     99.25% # Writes before turning the bus around for reads
system.mem_ctrls0.wrPerTurnAround::28               1      0.75%    100.00% # Writes before turning the bus around for reads
system.mem_ctrls0.wrPerTurnAround::total          133                       # Writes before turning the bus around for reads
system.mem_ctrls0.totQLat                  9427601229                       # Total ticks spent queuing
system.mem_ctrls0.totMemAccLat            10304032479                       # Total ticks spent from burst creation until serviced by the DRAM
system.mem_ctrls0.totBusLat                 233715000                       # Total ticks spent in databus transfers
system.mem_ctrls0.avgQLat                   201690.12                       # Average queueing delay per DRAM burst
system.mem_ctrls0.avgBusLat                   5000.00                       # Average bus latency per DRAM burst
system.mem_ctrls0.avgMemAccLat              220440.12                       # Average memory access latency per DRAM burst
system.mem_ctrls0.avgRdBW                        2.95                       # Average DRAM read bandwidth in MiByte/s
system.mem_ctrls0.avgWrBW                        0.15                       # Average achieved write bandwidth in MiByte/s
system.mem_ctrls0.avgRdBWSys                     2.96                       # Average system read bandwidth in MiByte/s
system.mem_ctrls0.avgWrBWSys                     0.15                       # Average system write bandwidth in MiByte/s
system.mem_ctrls0.peakBW                     12800.00                       # Theoretical peak bandwidth in MiByte/s
system.mem_ctrls0.busUtil                        0.02                       # Data bus utilization in percentage
system.mem_ctrls0.busUtilRead                    0.02                       # Data bus utilization in percentage for reads
system.mem_ctrls0.busUtilWrite                   0.00                       # Data bus utilization in percentage for writes
system.mem_ctrls0.avgRdQLen                      1.00                       # Average read queue length when enqueuing
system.mem_ctrls0.avgWrQLen                      9.07                       # Average write queue length when enqueuing
system.mem_ctrls0.readRowHits                   23582                       # Number of row buffer hits during reads
system.mem_ctrls0.writeRowHits                   1458                       # Number of row buffer hits during writes
system.mem_ctrls0.readRowHitRate                50.45                       # Row buffer hit rate for reads
system.mem_ctrls0.writeRowHitRate               61.26                       # Row buffer hit rate for writes
system.mem_ctrls0.avgGap                  20555030.13                       # Average gap between requests
system.mem_ctrls0.pageHitRate                   50.97                       # Row buffer hit rate, read and write combined
system.mem_ctrls0_0.actEnergy                90142500                       # Energy for activate commands per rank (pJ)
system.mem_ctrls0_0.preEnergy                47900490                       # Energy for precharge commands per rank (pJ)
system.mem_ctrls0_0.readEnergy              167525820                       # Energy for read commands per rank (pJ)
system.mem_ctrls0_0.writeEnergy               6102180                       # Energy for write commands per rank (pJ)
system.mem_ctrls0_0.refreshEnergy        15784569840.000004                       # Energy for refresh commands per rank (pJ)
system.mem_ctrls0_0.actBackEnergy          3389584800                       # Energy for active background per rank (pJ)
system.mem_ctrls0_0.preBackEnergy          1042411200                       # Energy for precharge background per rank (pJ)
system.mem_ctrls0_0.actPowerDownEnergy    31015810710                       # Energy for active power-down per rank (pJ)
system.mem_ctrls0_0.prePowerDownEnergy    24498204000                       # Energy for precharge power-down per rank (pJ)
system.mem_ctrls0_0.selfRefreshEnergy    213371619315                       # Energy for self refresh per rank (pJ)
system.mem_ctrls0_0.totalEnergy          289413996705                       # Total energy per rank (pJ)
system.mem_ctrls0_0.averagePower           285.812051                       # Core power per rank (mW)
system.mem_ctrls0_0.totalIdleTime        1002454092573                       # Total Idle time Per DRAM Rank
system.mem_ctrls0_0.memoryStateTime::IDLE   2178814216                       # Time in different power states
system.mem_ctrls0_0.memoryStateTime::REF   6725084000                       # Time in different power states
system.mem_ctrls0_0.memoryStateTime::SREF 870639782696                       # Time in different power states
system.mem_ctrls0_0.memoryStateTime::PRE_PDN  63797343834                       # Time in different power states
system.mem_ctrls0_0.memoryStateTime::ACT   1244505099                       # Time in different power states
system.mem_ctrls0_0.memoryStateTime::ACT_PDN  68016966043                       # Time in different power states
system.mem_ctrls0_1.actEnergy                81581640                       # Energy for activate commands per rank (pJ)
system.mem_ctrls0_1.preEnergy                43354080                       # Energy for precharge commands per rank (pJ)
system.mem_ctrls0_1.readEnergy              166219200                       # Energy for read commands per rank (pJ)
system.mem_ctrls0_1.writeEnergy               6154380                       # Energy for write commands per rank (pJ)
system.mem_ctrls0_1.refreshEnergy        16895838960.000004                       # Energy for refresh commands per rank (pJ)
system.mem_ctrls0_1.actBackEnergy          3583705140                       # Energy for active background per rank (pJ)
system.mem_ctrls0_1.preBackEnergy          1135444320                       # Energy for precharge background per rank (pJ)
system.mem_ctrls0_1.actPowerDownEnergy    32244707910                       # Energy for active power-down per rank (pJ)
system.mem_ctrls0_1.prePowerDownEnergy    26475701280                       # Energy for precharge power-down per rank (pJ)
system.mem_ctrls0_1.selfRefreshEnergy    211752120090                       # Energy for self refresh per rank (pJ)
system.mem_ctrls0_1.totalEnergy          292384984620                       # Total energy per rank (pJ)
system.mem_ctrls0_1.averagePower           288.746063                       # Core power per rank (mW)
system.mem_ctrls0_1.totalIdleTime        1001786493206                       # Total Idle time Per DRAM Rank
system.mem_ctrls0_1.memoryStateTime::IDLE   2385249877                       # Time in different power states
system.mem_ctrls0_1.memoryStateTime::REF   7199760000                       # Time in different power states
system.mem_ctrls0_1.memoryStateTime::SREF 862127043024                       # Time in different power states
system.mem_ctrls0_1.memoryStateTime::PRE_PDN  68947218440                       # Time in different power states
system.mem_ctrls0_1.memoryStateTime::ACT   1230992805                       # Time in different power states
system.mem_ctrls0_1.memoryStateTime::ACT_PDN  70712231742                       # Time in different power states
system.mem_ctrls1.pwrStateResidencyTicks::UNDEFINED 310860484380297                       # Cumulative time (in ticks) in various power states
system.mem_ctrls1.bytes_read::cpu.inst            128                       # Number of bytes read from this memory
system.mem_ctrls1.bytes_read::switch_cpus.inst        25216                       # Number of bytes read from this memory
system.mem_ctrls1.bytes_read::switch_cpus.data      2621120                       # Number of bytes read from this memory
system.mem_ctrls1.bytes_read::switch_cpus_1.inst         7680                       # Number of bytes read from this memory
system.mem_ctrls1.bytes_read::switch_cpus_1.data       344064                       # Number of bytes read from this memory
system.mem_ctrls1.bytes_read::total           2998208                       # Number of bytes read from this memory
system.mem_ctrls1.bytes_inst_read::cpu.inst          128                       # Number of instructions bytes read from this memory
system.mem_ctrls1.bytes_inst_read::switch_cpus.inst        25216                       # Number of instructions bytes read from this memory
system.mem_ctrls1.bytes_inst_read::switch_cpus_1.inst         7680                       # Number of instructions bytes read from this memory
system.mem_ctrls1.bytes_inst_read::total        33024                       # Number of instructions bytes read from this memory
system.mem_ctrls1.bytes_written::writebacks       154624                       # Number of bytes written to this memory
system.mem_ctrls1.bytes_written::total         154624                       # Number of bytes written to this memory
system.mem_ctrls1.num_reads::cpu.inst               2                       # Number of read requests responded to by this memory
system.mem_ctrls1.num_reads::switch_cpus.inst          394                       # Number of read requests responded to by this memory
system.mem_ctrls1.num_reads::switch_cpus.data        40955                       # Number of read requests responded to by this memory
system.mem_ctrls1.num_reads::switch_cpus_1.inst          120                       # Number of read requests responded to by this memory
system.mem_ctrls1.num_reads::switch_cpus_1.data         5376                       # Number of read requests responded to by this memory
system.mem_ctrls1.num_reads::total              46847                       # Number of read requests responded to by this memory
system.mem_ctrls1.num_writes::writebacks         2416                       # Number of write requests responded to by this memory
system.mem_ctrls1.num_writes::total              2416                       # Number of write requests responded to by this memory
system.mem_ctrls1.bw_read::cpu.inst               126                       # Total read bandwidth from this memory (bytes/s)
system.mem_ctrls1.bw_read::switch_cpus.inst        24902                       # Total read bandwidth from this memory (bytes/s)
system.mem_ctrls1.bw_read::switch_cpus.data      2588498                       # Total read bandwidth from this memory (bytes/s)
system.mem_ctrls1.bw_read::switch_cpus_1.inst         7584                       # Total read bandwidth from this memory (bytes/s)
system.mem_ctrls1.bw_read::switch_cpus_1.data       339782                       # Total read bandwidth from this memory (bytes/s)
system.mem_ctrls1.bw_read::total              2960893                       # Total read bandwidth from this memory (bytes/s)
system.mem_ctrls1.bw_inst_read::cpu.inst          126                       # Instruction read bandwidth from this memory (bytes/s)
system.mem_ctrls1.bw_inst_read::switch_cpus.inst        24902                       # Instruction read bandwidth from this memory (bytes/s)
system.mem_ctrls1.bw_inst_read::switch_cpus_1.inst         7584                       # Instruction read bandwidth from this memory (bytes/s)
system.mem_ctrls1.bw_inst_read::total           32613                       # Instruction read bandwidth from this memory (bytes/s)
system.mem_ctrls1.bw_write::writebacks         152700                       # Write bandwidth from this memory (bytes/s)
system.mem_ctrls1.bw_write::total              152700                       # Write bandwidth from this memory (bytes/s)
system.mem_ctrls1.bw_total::writebacks         152700                       # Total bandwidth to/from this memory (bytes/s)
system.mem_ctrls1.bw_total::cpu.inst              126                       # Total bandwidth to/from this memory (bytes/s)
system.mem_ctrls1.bw_total::switch_cpus.inst        24902                       # Total bandwidth to/from this memory (bytes/s)
system.mem_ctrls1.bw_total::switch_cpus.data      2588498                       # Total bandwidth to/from this memory (bytes/s)
system.mem_ctrls1.bw_total::switch_cpus_1.inst         7584                       # Total bandwidth to/from this memory (bytes/s)
system.mem_ctrls1.bw_total::switch_cpus_1.data       339782                       # Total bandwidth to/from this memory (bytes/s)
system.mem_ctrls1.bw_total::total             3113593                       # Total bandwidth to/from this memory (bytes/s)
system.mem_ctrls1.readReqs                      46847                       # Number of read requests accepted
system.mem_ctrls1.writeReqs                      2416                       # Number of write requests accepted
system.mem_ctrls1.readBursts                    46847                       # Number of DRAM read bursts, including those serviced by the write queue
system.mem_ctrls1.writeBursts                    2416                       # Number of DRAM write bursts, including those merged in the write queue
system.mem_ctrls1.bytesReadDRAM               2989888                       # Total number of bytes read from DRAM
system.mem_ctrls1.bytesReadWrQ                   8320                       # Total number of bytes read from write queue
system.mem_ctrls1.bytesWritten                 152640                       # Total number of bytes written to DRAM
system.mem_ctrls1.bytesReadSys                2998208                       # Total read bytes from the system interface side
system.mem_ctrls1.bytesWrittenSys              154624                       # Total written bytes from the system interface side
system.mem_ctrls1.servicedByWrQ                   130                       # Number of DRAM read bursts serviced by the write queue
system.mem_ctrls1.mergedWrBursts                    0                       # Number of DRAM write bursts merged with an existing one
system.mem_ctrls1.neitherReadNorWriteReqs            0                       # Number of requests that are neither read nor write
system.mem_ctrls1.perBankRdBursts::0             3122                       # Per bank write bursts
system.mem_ctrls1.perBankRdBursts::1             3047                       # Per bank write bursts
system.mem_ctrls1.perBankRdBursts::2             2870                       # Per bank write bursts
system.mem_ctrls1.perBankRdBursts::3             2739                       # Per bank write bursts
system.mem_ctrls1.perBankRdBursts::4             2680                       # Per bank write bursts
system.mem_ctrls1.perBankRdBursts::5             2774                       # Per bank write bursts
system.mem_ctrls1.perBankRdBursts::6             2994                       # Per bank write bursts
system.mem_ctrls1.perBankRdBursts::7             3181                       # Per bank write bursts
system.mem_ctrls1.perBankRdBursts::8             3366                       # Per bank write bursts
system.mem_ctrls1.perBankRdBursts::9             3281                       # Per bank write bursts
system.mem_ctrls1.perBankRdBursts::10            2843                       # Per bank write bursts
system.mem_ctrls1.perBankRdBursts::11            2586                       # Per bank write bursts
system.mem_ctrls1.perBankRdBursts::12            2679                       # Per bank write bursts
system.mem_ctrls1.perBankRdBursts::13            2681                       # Per bank write bursts
system.mem_ctrls1.perBankRdBursts::14            2927                       # Per bank write bursts
system.mem_ctrls1.perBankRdBursts::15            2947                       # Per bank write bursts
system.mem_ctrls1.perBankWrBursts::0              334                       # Per bank write bursts
system.mem_ctrls1.perBankWrBursts::1              288                       # Per bank write bursts
system.mem_ctrls1.perBankWrBursts::2              116                       # Per bank write bursts
system.mem_ctrls1.perBankWrBursts::3               95                       # Per bank write bursts
system.mem_ctrls1.perBankWrBursts::4               70                       # Per bank write bursts
system.mem_ctrls1.perBankWrBursts::5               17                       # Per bank write bursts
system.mem_ctrls1.perBankWrBursts::6              151                       # Per bank write bursts
system.mem_ctrls1.perBankWrBursts::7              134                       # Per bank write bursts
system.mem_ctrls1.perBankWrBursts::8              200                       # Per bank write bursts
system.mem_ctrls1.perBankWrBursts::9              281                       # Per bank write bursts
system.mem_ctrls1.perBankWrBursts::10             119                       # Per bank write bursts
system.mem_ctrls1.perBankWrBursts::11              33                       # Per bank write bursts
system.mem_ctrls1.perBankWrBursts::12              48                       # Per bank write bursts
system.mem_ctrls1.perBankWrBursts::13              40                       # Per bank write bursts
system.mem_ctrls1.perBankWrBursts::14             196                       # Per bank write bursts
system.mem_ctrls1.perBankWrBursts::15             263                       # Per bank write bursts
system.mem_ctrls1.numRdRetry                        0                       # Number of times read queue was full causing retry
system.mem_ctrls1.numWrRetry                        0                       # Number of times write queue was full causing retry
system.mem_ctrls1.totGap                 1012602221102                       # Total gap between requests
system.mem_ctrls1.readPktSize::0                    0                       # Read request sizes (log2)
system.mem_ctrls1.readPktSize::1                    0                       # Read request sizes (log2)
system.mem_ctrls1.readPktSize::2                    0                       # Read request sizes (log2)
system.mem_ctrls1.readPktSize::3                    0                       # Read request sizes (log2)
system.mem_ctrls1.readPktSize::4                    0                       # Read request sizes (log2)
system.mem_ctrls1.readPktSize::5                    0                       # Read request sizes (log2)
system.mem_ctrls1.readPktSize::6                46847                       # Read request sizes (log2)
system.mem_ctrls1.writePktSize::0                   0                       # Write request sizes (log2)
system.mem_ctrls1.writePktSize::1                   0                       # Write request sizes (log2)
system.mem_ctrls1.writePktSize::2                   0                       # Write request sizes (log2)
system.mem_ctrls1.writePktSize::3                   0                       # Write request sizes (log2)
system.mem_ctrls1.writePktSize::4                   0                       # Write request sizes (log2)
system.mem_ctrls1.writePktSize::5                   0                       # Write request sizes (log2)
system.mem_ctrls1.writePktSize::6                2416                       # Write request sizes (log2)
system.mem_ctrls1.rdQLenPdf::0                  45433                       # What read queue length does an incoming req see
system.mem_ctrls1.rdQLenPdf::1                   1284                       # What read queue length does an incoming req see
system.mem_ctrls1.rdQLenPdf::2                      0                       # What read queue length does an incoming req see
system.mem_ctrls1.rdQLenPdf::3                      0                       # What read queue length does an incoming req see
system.mem_ctrls1.rdQLenPdf::4                      0                       # What read queue length does an incoming req see
system.mem_ctrls1.rdQLenPdf::5                      0                       # What read queue length does an incoming req see
system.mem_ctrls1.rdQLenPdf::6                      0                       # What read queue length does an incoming req see
system.mem_ctrls1.rdQLenPdf::7                      0                       # What read queue length does an incoming req see
system.mem_ctrls1.rdQLenPdf::8                      0                       # What read queue length does an incoming req see
system.mem_ctrls1.rdQLenPdf::9                      0                       # What read queue length does an incoming req see
system.mem_ctrls1.rdQLenPdf::10                     0                       # What read queue length does an incoming req see
system.mem_ctrls1.rdQLenPdf::11                     0                       # What read queue length does an incoming req see
system.mem_ctrls1.rdQLenPdf::12                     0                       # What read queue length does an incoming req see
system.mem_ctrls1.rdQLenPdf::13                     0                       # What read queue length does an incoming req see
system.mem_ctrls1.rdQLenPdf::14                     0                       # What read queue length does an incoming req see
system.mem_ctrls1.rdQLenPdf::15                     0                       # What read queue length does an incoming req see
system.mem_ctrls1.rdQLenPdf::16                     0                       # What read queue length does an incoming req see
system.mem_ctrls1.rdQLenPdf::17                     0                       # What read queue length does an incoming req see
system.mem_ctrls1.rdQLenPdf::18                     0                       # What read queue length does an incoming req see
system.mem_ctrls1.rdQLenPdf::19                     0                       # What read queue length does an incoming req see
system.mem_ctrls1.rdQLenPdf::20                     0                       # What read queue length does an incoming req see
system.mem_ctrls1.rdQLenPdf::21                     0                       # What read queue length does an incoming req see
system.mem_ctrls1.rdQLenPdf::22                     0                       # What read queue length does an incoming req see
system.mem_ctrls1.rdQLenPdf::23                     0                       # What read queue length does an incoming req see
system.mem_ctrls1.rdQLenPdf::24                     0                       # What read queue length does an incoming req see
system.mem_ctrls1.rdQLenPdf::25                     0                       # What read queue length does an incoming req see
system.mem_ctrls1.rdQLenPdf::26                     0                       # What read queue length does an incoming req see
system.mem_ctrls1.rdQLenPdf::27                     0                       # What read queue length does an incoming req see
system.mem_ctrls1.rdQLenPdf::28                     0                       # What read queue length does an incoming req see
system.mem_ctrls1.rdQLenPdf::29                     0                       # What read queue length does an incoming req see
system.mem_ctrls1.rdQLenPdf::30                     0                       # What read queue length does an incoming req see
system.mem_ctrls1.rdQLenPdf::31                     0                       # What read queue length does an incoming req see
system.mem_ctrls1.wrQLenPdf::0                      2                       # What write queue length does an incoming req see
system.mem_ctrls1.wrQLenPdf::1                      2                       # What write queue length does an incoming req see
system.mem_ctrls1.wrQLenPdf::2                      2                       # What write queue length does an incoming req see
system.mem_ctrls1.wrQLenPdf::3                      2                       # What write queue length does an incoming req see
system.mem_ctrls1.wrQLenPdf::4                      2                       # What write queue length does an incoming req see
system.mem_ctrls1.wrQLenPdf::5                      2                       # What write queue length does an incoming req see
system.mem_ctrls1.wrQLenPdf::6                      2                       # What write queue length does an incoming req see
system.mem_ctrls1.wrQLenPdf::7                      2                       # What write queue length does an incoming req see
system.mem_ctrls1.wrQLenPdf::8                      2                       # What write queue length does an incoming req see
system.mem_ctrls1.wrQLenPdf::9                      2                       # What write queue length does an incoming req see
system.mem_ctrls1.wrQLenPdf::10                     2                       # What write queue length does an incoming req see
system.mem_ctrls1.wrQLenPdf::11                     2                       # What write queue length does an incoming req see
system.mem_ctrls1.wrQLenPdf::12                     2                       # What write queue length does an incoming req see
system.mem_ctrls1.wrQLenPdf::13                     2                       # What write queue length does an incoming req see
system.mem_ctrls1.wrQLenPdf::14                     2                       # What write queue length does an incoming req see
system.mem_ctrls1.wrQLenPdf::15                    85                       # What write queue length does an incoming req see
system.mem_ctrls1.wrQLenPdf::16                    92                       # What write queue length does an incoming req see
system.mem_ctrls1.wrQLenPdf::17                   125                       # What write queue length does an incoming req see
system.mem_ctrls1.wrQLenPdf::18                   134                       # What write queue length does an incoming req see
system.mem_ctrls1.wrQLenPdf::19                   138                       # What write queue length does an incoming req see
system.mem_ctrls1.wrQLenPdf::20                   141                       # What write queue length does an incoming req see
system.mem_ctrls1.wrQLenPdf::21                   140                       # What write queue length does an incoming req see
system.mem_ctrls1.wrQLenPdf::22                   140                       # What write queue length does an incoming req see
system.mem_ctrls1.wrQLenPdf::23                   141                       # What write queue length does an incoming req see
system.mem_ctrls1.wrQLenPdf::24                   140                       # What write queue length does an incoming req see
system.mem_ctrls1.wrQLenPdf::25                   138                       # What write queue length does an incoming req see
system.mem_ctrls1.wrQLenPdf::26                   138                       # What write queue length does an incoming req see
system.mem_ctrls1.wrQLenPdf::27                   138                       # What write queue length does an incoming req see
system.mem_ctrls1.wrQLenPdf::28                   139                       # What write queue length does an incoming req see
system.mem_ctrls1.wrQLenPdf::29                   140                       # What write queue length does an incoming req see
system.mem_ctrls1.wrQLenPdf::30                   144                       # What write queue length does an incoming req see
system.mem_ctrls1.wrQLenPdf::31                   136                       # What write queue length does an incoming req see
system.mem_ctrls1.wrQLenPdf::32                   135                       # What write queue length does an incoming req see
system.mem_ctrls1.wrQLenPdf::33                     2                       # What write queue length does an incoming req see
system.mem_ctrls1.wrQLenPdf::34                     0                       # What write queue length does an incoming req see
system.mem_ctrls1.wrQLenPdf::35                     0                       # What write queue length does an incoming req see
system.mem_ctrls1.wrQLenPdf::36                     0                       # What write queue length does an incoming req see
system.mem_ctrls1.wrQLenPdf::37                     0                       # What write queue length does an incoming req see
system.mem_ctrls1.wrQLenPdf::38                     0                       # What write queue length does an incoming req see
system.mem_ctrls1.wrQLenPdf::39                     0                       # What write queue length does an incoming req see
system.mem_ctrls1.wrQLenPdf::40                     0                       # What write queue length does an incoming req see
system.mem_ctrls1.wrQLenPdf::41                     0                       # What write queue length does an incoming req see
system.mem_ctrls1.wrQLenPdf::42                     0                       # What write queue length does an incoming req see
system.mem_ctrls1.wrQLenPdf::43                     0                       # What write queue length does an incoming req see
system.mem_ctrls1.wrQLenPdf::44                     0                       # What write queue length does an incoming req see
system.mem_ctrls1.wrQLenPdf::45                     0                       # What write queue length does an incoming req see
system.mem_ctrls1.wrQLenPdf::46                     0                       # What write queue length does an incoming req see
system.mem_ctrls1.wrQLenPdf::47                     0                       # What write queue length does an incoming req see
system.mem_ctrls1.wrQLenPdf::48                     0                       # What write queue length does an incoming req see
system.mem_ctrls1.wrQLenPdf::49                     0                       # What write queue length does an incoming req see
system.mem_ctrls1.wrQLenPdf::50                     0                       # What write queue length does an incoming req see
system.mem_ctrls1.wrQLenPdf::51                     0                       # What write queue length does an incoming req see
system.mem_ctrls1.wrQLenPdf::52                     0                       # What write queue length does an incoming req see
system.mem_ctrls1.wrQLenPdf::53                     0                       # What write queue length does an incoming req see
system.mem_ctrls1.wrQLenPdf::54                     0                       # What write queue length does an incoming req see
system.mem_ctrls1.wrQLenPdf::55                     0                       # What write queue length does an incoming req see
system.mem_ctrls1.wrQLenPdf::56                     0                       # What write queue length does an incoming req see
system.mem_ctrls1.wrQLenPdf::57                     0                       # What write queue length does an incoming req see
system.mem_ctrls1.wrQLenPdf::58                     0                       # What write queue length does an incoming req see
system.mem_ctrls1.wrQLenPdf::59                     0                       # What write queue length does an incoming req see
system.mem_ctrls1.wrQLenPdf::60                     0                       # What write queue length does an incoming req see
system.mem_ctrls1.wrQLenPdf::61                     0                       # What write queue length does an incoming req see
system.mem_ctrls1.wrQLenPdf::62                     0                       # What write queue length does an incoming req see
system.mem_ctrls1.wrQLenPdf::63                     0                       # What write queue length does an incoming req see
system.mem_ctrls1.bytesPerActivate::samples        24057                       # Bytes accessed per row activation
system.mem_ctrls1.bytesPerActivate::mean   130.623103                       # Bytes accessed per row activation
system.mem_ctrls1.bytesPerActivate::gmean   114.937734                       # Bytes accessed per row activation
system.mem_ctrls1.bytesPerActivate::stdev   111.108687                       # Bytes accessed per row activation
system.mem_ctrls1.bytesPerActivate::0-127         5598     23.27%     23.27% # Bytes accessed per row activation
system.mem_ctrls1.bytesPerActivate::128-255        17601     73.16%     96.43% # Bytes accessed per row activation
system.mem_ctrls1.bytesPerActivate::256-383          256      1.06%     97.50% # Bytes accessed per row activation
system.mem_ctrls1.bytesPerActivate::384-511          140      0.58%     98.08% # Bytes accessed per row activation
system.mem_ctrls1.bytesPerActivate::512-639           83      0.35%     98.42% # Bytes accessed per row activation
system.mem_ctrls1.bytesPerActivate::640-767           80      0.33%     98.76% # Bytes accessed per row activation
system.mem_ctrls1.bytesPerActivate::768-895           46      0.19%     98.95% # Bytes accessed per row activation
system.mem_ctrls1.bytesPerActivate::896-1023           29      0.12%     99.07% # Bytes accessed per row activation
system.mem_ctrls1.bytesPerActivate::1024-1151          224      0.93%    100.00% # Bytes accessed per row activation
system.mem_ctrls1.bytesPerActivate::total        24057                       # Bytes accessed per row activation
system.mem_ctrls1.rdPerTurnAround::samples          136                       # Reads before turning the bus around for writes
system.mem_ctrls1.rdPerTurnAround::mean    343.507353                       # Reads before turning the bus around for writes
system.mem_ctrls1.rdPerTurnAround::stdev  3342.223374                       # Reads before turning the bus around for writes
system.mem_ctrls1.rdPerTurnAround::0-2047          135     99.26%     99.26% # Reads before turning the bus around for writes
system.mem_ctrls1.rdPerTurnAround::38912-40959            1      0.74%    100.00% # Reads before turning the bus around for writes
system.mem_ctrls1.rdPerTurnAround::total          136                       # Reads before turning the bus around for writes
system.mem_ctrls1.wrPerTurnAround::samples          136                       # Writes before turning the bus around for reads
system.mem_ctrls1.wrPerTurnAround::mean     17.536765                       # Writes before turning the bus around for reads
system.mem_ctrls1.wrPerTurnAround::gmean    17.483001                       # Writes before turning the bus around for reads
system.mem_ctrls1.wrPerTurnAround::stdev     1.470239                       # Writes before turning the bus around for reads
system.mem_ctrls1.wrPerTurnAround::16              44     32.35%     32.35% # Writes before turning the bus around for reads
system.mem_ctrls1.wrPerTurnAround::17               3      2.21%     34.56% # Writes before turning the bus around for reads
system.mem_ctrls1.wrPerTurnAround::18              73     53.68%     88.24% # Writes before turning the bus around for reads
system.mem_ctrls1.wrPerTurnAround::19              13      9.56%     97.79% # Writes before turning the bus around for reads
system.mem_ctrls1.wrPerTurnAround::20               2      1.47%     99.26% # Writes before turning the bus around for reads
system.mem_ctrls1.wrPerTurnAround::29               1      0.74%    100.00% # Writes before turning the bus around for reads
system.mem_ctrls1.wrPerTurnAround::total          136                       # Writes before turning the bus around for reads
system.mem_ctrls1.totQLat                  9427859640                       # Total ticks spent queuing
system.mem_ctrls1.totMemAccLat            10303803390                       # Total ticks spent from burst creation until serviced by the DRAM
system.mem_ctrls1.totBusLat                 233585000                       # Total ticks spent in databus transfers
system.mem_ctrls1.avgQLat                   201807.90                       # Average queueing delay per DRAM burst
system.mem_ctrls1.avgBusLat                   5000.00                       # Average bus latency per DRAM burst
system.mem_ctrls1.avgMemAccLat              220557.90                       # Average memory access latency per DRAM burst
system.mem_ctrls1.avgRdBW                        2.95                       # Average DRAM read bandwidth in MiByte/s
system.mem_ctrls1.avgWrBW                        0.15                       # Average achieved write bandwidth in MiByte/s
system.mem_ctrls1.avgRdBWSys                     2.96                       # Average system read bandwidth in MiByte/s
system.mem_ctrls1.avgWrBWSys                     0.15                       # Average system write bandwidth in MiByte/s
system.mem_ctrls1.peakBW                     12800.00                       # Theoretical peak bandwidth in MiByte/s
system.mem_ctrls1.busUtil                        0.02                       # Data bus utilization in percentage
system.mem_ctrls1.busUtilRead                    0.02                       # Data bus utilization in percentage for reads
system.mem_ctrls1.busUtilWrite                   0.00                       # Data bus utilization in percentage for writes
system.mem_ctrls1.avgRdQLen                      1.00                       # Average read queue length when enqueuing
system.mem_ctrls1.avgWrQLen                      8.70                       # Average write queue length when enqueuing
system.mem_ctrls1.readRowHits                   23576                       # Number of row buffer hits during reads
system.mem_ctrls1.writeRowHits                   1467                       # Number of row buffer hits during writes
system.mem_ctrls1.readRowHitRate                50.47                       # Row buffer hit rate for reads
system.mem_ctrls1.writeRowHitRate               60.72                       # Row buffer hit rate for writes
system.mem_ctrls1.avgGap                  20555025.50                       # Average gap between requests
system.mem_ctrls1.pageHitRate                   50.97                       # Row buffer hit rate, read and write combined
system.mem_ctrls1_0.actEnergy                90256740                       # Energy for activate commands per rank (pJ)
system.mem_ctrls1_0.preEnergy                47972595                       # Energy for precharge commands per rank (pJ)
system.mem_ctrls1_0.readEnergy              167125980                       # Energy for read commands per rank (pJ)
system.mem_ctrls1_0.writeEnergy               6290100                       # Energy for write commands per rank (pJ)
system.mem_ctrls1_0.refreshEnergy        15781496640.000004                       # Energy for refresh commands per rank (pJ)
system.mem_ctrls1_0.actBackEnergy          3374624010                       # Energy for active background per rank (pJ)
system.mem_ctrls1_0.preBackEnergy          1039668000                       # Energy for precharge background per rank (pJ)
system.mem_ctrls1_0.actPowerDownEnergy    30991349160                       # Energy for active power-down per rank (pJ)
system.mem_ctrls1_0.prePowerDownEnergy    24525271200                       # Energy for precharge power-down per rank (pJ)
system.mem_ctrls1_0.selfRefreshEnergy    213375567705                       # Energy for self refresh per rank (pJ)
system.mem_ctrls1_0.totalEnergy          289400003070                       # Total energy per rank (pJ)
system.mem_ctrls1_0.averagePower           285.798231                       # Core power per rank (mW)
system.mem_ctrls1_0.totalIdleTime        1002493264293                       # Total Idle time Per DRAM Rank
system.mem_ctrls1_0.memoryStateTime::IDLE   2172043801                       # Time in different power states
system.mem_ctrls1_0.memoryStateTime::REF   6723754000                       # Time in different power states
system.mem_ctrls1_0.memoryStateTime::SREF 870662253655                       # Time in different power states
system.mem_ctrls1_0.memoryStateTime::PRE_PDN  63867957476                       # Time in different power states
system.mem_ctrls1_0.memoryStateTime::ACT   1212971061                       # Time in different power states
system.mem_ctrls1_0.memoryStateTime::ACT_PDN  67963515895                       # Time in different power states
system.mem_ctrls1_1.actEnergy                81524520                       # Energy for activate commands per rank (pJ)
system.mem_ctrls1_1.preEnergy                43323720                       # Energy for precharge commands per rank (pJ)
system.mem_ctrls1_1.readEnergy              166433400                       # Energy for read commands per rank (pJ)
system.mem_ctrls1_1.writeEnergy               6159600                       # Energy for write commands per rank (pJ)
system.mem_ctrls1_1.refreshEnergy        16920424560.000004                       # Energy for refresh commands per rank (pJ)
system.mem_ctrls1_1.actBackEnergy          3570330090                       # Energy for active background per rank (pJ)
system.mem_ctrls1_1.preBackEnergy          1140198720                       # Energy for precharge background per rank (pJ)
system.mem_ctrls1_1.actPowerDownEnergy    32298441240                       # Energy for active power-down per rank (pJ)
system.mem_ctrls1_1.prePowerDownEnergy    26517946080                       # Energy for precharge power-down per rank (pJ)
system.mem_ctrls1_1.selfRefreshEnergy    211709352570                       # Energy for self refresh per rank (pJ)
system.mem_ctrls1_1.totalEnergy          292454508180                       # Total energy per rank (pJ)
system.mem_ctrls1_1.averagePower           288.814722                       # Core power per rank (mW)
system.mem_ctrls1_1.totalIdleTime        1001802450089                       # Total Idle time Per DRAM Rank
system.mem_ctrls1_1.memoryStateTime::IDLE   2397965014                       # Time in different power states
system.mem_ctrls1_1.memoryStateTime::REF   7210262000                       # Time in different power states
system.mem_ctrls1_1.memoryStateTime::SREF 861915616339                       # Time in different power states
system.mem_ctrls1_1.memoryStateTime::PRE_PDN  69057246780                       # Time in different power states
system.mem_ctrls1_1.memoryStateTime::ACT   1191818785                       # Time in different power states
system.mem_ctrls1_1.memoryStateTime::ACT_PDN  70829586970                       # Time in different power states
system.pwrStateResidencyTicks::UNDEFINED 310860484380297                       # Cumulative time (in ticks) in various power states
system.cpu.branchPred.lookups                       1                       # Number of BP lookups
system.cpu.branchPred.condPredicted                 0                       # Number of conditional branches predicted
system.cpu.branchPred.condIncorrect                 1                       # Number of conditional branches incorrect
system.cpu.branchPred.BTBLookups                    0                       # Number of BTB lookups
system.cpu.branchPred.BTBHits                       0                       # Number of BTB hits
system.cpu.branchPred.BTBCorrect                    0                       # Number of correct BTB predictions (this stat may not work properly.
system.cpu.branchPred.BTBHitPct                   nan                       # BTB Hit Percentage
system.cpu.branchPred.usedRAS                       1                       # Number of times the RAS was used to get a target.
system.cpu.branchPred.RASInCorrect                  1                       # Number of incorrect RAS predictions.
system.cpu.branchPred.indirectLookups               0                       # Number of indirect predictor lookups.
system.cpu.branchPred.indirectHits                  0                       # Number of indirect target hits.
system.cpu.branchPred.indirectMisses                0                       # Number of indirect misses.
system.cpu.branchPredindirectMispredicted            0                       # Number of mispredicted indirect branches.
system.cpu_voltage_domain.voltage                   1                       # Voltage in Volts
system.cpu_clk_domain.clock                       333                       # Clock period in ticks
system.cpu.dtb.fetch_hits                           0                       # ITB hits
system.cpu.dtb.fetch_misses                         0                       # ITB misses
system.cpu.dtb.fetch_acv                            0                       # ITB acv
system.cpu.dtb.fetch_accesses                       0                       # ITB accesses
system.cpu.dtb.read_hits                            0                       # DTB read hits
system.cpu.dtb.read_misses                          0                       # DTB read misses
system.cpu.dtb.read_acv                             0                       # DTB read access violations
system.cpu.dtb.read_accesses                        0                       # DTB read accesses
system.cpu.dtb.write_hits                           0                       # DTB write hits
system.cpu.dtb.write_misses                         0                       # DTB write misses
system.cpu.dtb.write_acv                            0                       # DTB write access violations
system.cpu.dtb.write_accesses                       0                       # DTB write accesses
system.cpu.dtb.data_hits                            0                       # DTB hits
system.cpu.dtb.data_misses                          0                       # DTB misses
system.cpu.dtb.data_acv                             0                       # DTB access violations
system.cpu.dtb.data_accesses                        0                       # DTB accesses
system.cpu.itb.fetch_hits                           4                       # ITB hits
system.cpu.itb.fetch_misses                         1                       # ITB misses
system.cpu.itb.fetch_acv                            0                       # ITB acv
system.cpu.itb.fetch_accesses                       5                       # ITB accesses
system.cpu.itb.read_hits                            0                       # DTB read hits
system.cpu.itb.read_misses                          0                       # DTB read misses
system.cpu.itb.read_acv                             0                       # DTB read access violations
system.cpu.itb.read_accesses                        0                       # DTB read accesses
system.cpu.itb.write_hits                           0                       # DTB write hits
system.cpu.itb.write_misses                         0                       # DTB write misses
system.cpu.itb.write_acv                            0                       # DTB write access violations
system.cpu.itb.write_accesses                       0                       # DTB write accesses
system.cpu.itb.data_hits                            0                       # DTB hits
system.cpu.itb.data_misses                          0                       # DTB misses
system.cpu.itb.data_acv                             0                       # DTB access violations
system.cpu.itb.data_accesses                        0                       # DTB accesses
system.cpu.workload.num_syscalls                    0                       # Number of system calls
system.cpu.pwrStateResidencyTicks::ON    1012602495888                       # Cumulative time (in ticks) in various power states
system.cpu.numCycles                              973                       # number of cpu cycles simulated
system.cpu.numWorkItemsStarted                      0                       # number of work items this cpu started
system.cpu.numWorkItemsCompleted                    0                       # number of work items this cpu completed
system.cpu.fetch.icacheStallCycles                 27                       # Number of cycles fetch is stalled on an Icache miss
system.cpu.fetch.Insts                              7                       # Number of instructions fetch has processed
system.cpu.fetch.Branches                           1                       # Number of branches that fetch encountered
system.cpu.fetch.predictedBranches                  1                       # Number of branches that fetch has predicted taken
system.cpu.fetch.Cycles                             2                       # Number of cycles fetch has run and was not squashing or blocked
system.cpu.fetch.SquashCycles                       5                       # Number of cycles fetch has spent squashing
system.cpu.fetch.PendingDrainCycles                 3                       # Number of cycles fetch has spent waiting on pipes to drain
system.cpu.fetch.PendingTrapStallCycles             6                       # Number of stall cycles due to pending traps
system.cpu.fetch.CacheLines                         4                       # Number of cache lines fetched
system.cpu.fetch.IcacheSquashes                     2                       # Number of outstanding Icache misses that were squashed
system.cpu.fetch.rateDist::samples                 40                       # Number of instructions fetched each cycle (Total)
system.cpu.fetch.rateDist::mean              0.175000                       # Number of instructions fetched each cycle (Total)
system.cpu.fetch.rateDist::stdev             0.957762                       # Number of instructions fetched each cycle (Total)
system.cpu.fetch.rateDist::underflows               0      0.00%      0.00% # Number of instructions fetched each cycle (Total)
system.cpu.fetch.rateDist::0                       38     95.00%     95.00% # Number of instructions fetched each cycle (Total)
system.cpu.fetch.rateDist::1                        1      2.50%     97.50% # Number of instructions fetched each cycle (Total)
system.cpu.fetch.rateDist::2                        0      0.00%     97.50% # Number of instructions fetched each cycle (Total)
system.cpu.fetch.rateDist::3                        0      0.00%     97.50% # Number of instructions fetched each cycle (Total)
system.cpu.fetch.rateDist::4                        0      0.00%     97.50% # Number of instructions fetched each cycle (Total)
system.cpu.fetch.rateDist::5                        0      0.00%     97.50% # Number of instructions fetched each cycle (Total)
system.cpu.fetch.rateDist::6                        1      2.50%    100.00% # Number of instructions fetched each cycle (Total)
system.cpu.fetch.rateDist::7                        0      0.00%    100.00% # Number of instructions fetched each cycle (Total)
system.cpu.fetch.rateDist::8                        0      0.00%    100.00% # Number of instructions fetched each cycle (Total)
system.cpu.fetch.rateDist::overflows                0      0.00%    100.00% # Number of instructions fetched each cycle (Total)
system.cpu.fetch.rateDist::min_value                0                       # Number of instructions fetched each cycle (Total)
system.cpu.fetch.rateDist::max_value                6                       # Number of instructions fetched each cycle (Total)
system.cpu.fetch.rateDist::total                   40                       # Number of instructions fetched each cycle (Total)
system.cpu.fetch.branchRate                  0.001028                       # Number of branch fetches per cycle
system.cpu.fetch.rate                        0.007194                       # Number of inst fetches per cycle
system.cpu.decode.IdleCycles                       35                       # Number of cycles decode is idle
[...]
system.switch_cpus_1.iq.int_inst_queue_writes     89894665                       # Number of integer instruction queue writes
system.switch_cpus_1.iq.int_inst_queue_wakeup_accesses     83815498                       # Number of integer instruction queue wakeup accesses
system.switch_cpus_1.iq.fp_inst_queue_reads    266750464                       # Number of floating instruction queue reads
system.switch_cpus_1.iq.fp_inst_queue_writes    142381031                       # Number of floating instruction queue writes
system.switch_cpus_1.iq.fp_inst_queue_wakeup_accesses    125821937                       # Number of floating instruction queue wakeup accesses
system.switch_cpus_1.iq.int_alu_accesses     84870329                       # Number of integer alu accesses
system.switch_cpus_1.iq.fp_alu_accesses     135834837                       # Number of floating point alu accesses
system.switch_cpus_1.iew.lsq.thread0.forwLoads      4027209                       # Number of loads that had data forwarded from stores
system.switch_cpus_1.iew.lsq.thread0.invAddrLoads            0                       # Number of loads ignored due to an invalid address
system.switch_cpus_1.iew.lsq.thread0.squashedLoads      3318490                       # Number of loads squashed
system.switch_cpus_1.iew.lsq.thread0.ignoredResponses         4772                       # Number of memory responses ignored because the instruction is squashed
system.switch_cpus_1.iew.lsq.thread0.memOrderViolation         5854                       # Number of memory ordering violations
system.switch_cpus_1.iew.lsq.thread0.squashedStores       558285                       # Number of stores squashed
system.switch_cpus_1.iew.lsq.thread0.invAddrSwpfs            0                       # Number of software prefetches ignored due to an invalid address
system.switch_cpus_1.iew.lsq.thread0.blockedLoads            0                       # Number of blocked loads due to partial load-store forwarding
system.switch_cpus_1.iew.lsq.thread0.rescheduledLoads            3                       # Number of loads that were rescheduled
system.switch_cpus_1.iew.lsq.thread0.cacheBlocked      5339430                       # Number of times an access to memory failed due to the cache being blocked
system.switch_cpus_1.iew.iewIdleCycles              0                       # Number of cycles IEW is idle
system.switch_cpus_1.iew.iewSquashCycles       223419                       # Number of cycles IEW is squashing
system.switch_cpus_1.iew.iewBlockCycles      16910997                       # Number of cycles IEW is blocking
system.switch_cpus_1.iew.iewUnblockCycles      3192223                       # Number of cycles IEW is unblocking
system.switch_cpus_1.iew.iewDispatchedInsts    222178756                       # Number of instructions dispatched to IQ
system.switch_cpus_1.iew.iewDispSquashedInsts         2368                       # Number of squashed instructions skipped by dispatch
system.switch_cpus_1.iew.iewDispLoadInsts     33490309                       # Number of dispatched load instructions
system.switch_cpus_1.iew.iewDispStoreInsts     13365077                       # Number of dispatched store instructions
system.switch_cpus_1.iew.iewDispNonSpecInsts          891                       # Number of dispatched non-speculative instructions
system.switch_cpus_1.iew.iewIQFullEvents       968647                       # Number of times the IQ has become full, causing a stall
system.switch_cpus_1.iew.iewLSQFullEvents      1988689                       # Number of times the LSQ has become full, causing a stall
system.switch_cpus_1.iew.memOrderViolationEvents         5854                       # Number of memory order violations
system.switch_cpus_1.iew.predictedTakenIncorrect       117247                       # Number of branches that were predicted taken incorrectly
system.switch_cpus_1.iew.predictedNotTakenIncorrect       103602                       # Number of branches that were predicted not taken incorrectly
system.switch_cpus_1.iew.branchMispredicts       220849                       # Number of branch mispredicts detected at execute
system.switch_cpus_1.iew.iewExecutedInsts    214711742                       # Number of executed instructions
system.switch_cpus_1.iew.iewExecLoadInsts     37566387                       # Number of load instructions executed
system.switch_cpus_1.iew.iewExecSquashedInsts       264715                       # Number of squashed instructions skipped in execute
system.switch_cpus_1.iew.exec_swp                   0                       # number of swp insts executed
system.switch_cpus_1.iew.exec_nop             6043774                       # number of nop insts executed
system.switch_cpus_1.iew.exec_refs           50617008                       # number of memory reference insts executed
system.switch_cpus_1.iew.exec_branches       17889118                       # Number of branches executed
system.switch_cpus_1.iew.exec_stores         13050621                       # Number of stores executed
system.switch_cpus_1.iew.exec_rate           1.684263                       # Inst execution rate
system.switch_cpus_1.iew.wb_sent            209763827                       # cumulative count of insts sent to commit
system.switch_cpus_1.iew.wb_count           209637435                       # cumulative count of insts written-back
system.switch_cpus_1.iew.wb_producers       157502479                       # num instructions producing a value
system.switch_cpus_1.iew.wb_consumers       227006515                       # num instructions consuming a value
system.switch_cpus_1.iew.wb_rate             1.644459                       # insts written-back per cycle
system.switch_cpus_1.iew.wb_fanout           0.693824                       # average fanout of values written-back
system.switch_cpus_1.commit.commitSquashedInsts     16557097                       # The number of squashed insts skipped by commit
system.switch_cpus_1.commit.commitNonSpecStalls         1060                       # The number of times commit has been forced to stall to communicate backwards
system.switch_cpus_1.commit.branchMispredicts       212731                       # The number of times a branch was mispredicted
system.switch_cpus_1.commit.committed_per_cycle::samples    125069809                       # Number of insts commited each cycle
system.switch_cpus_1.commit.committed_per_cycle::mean     1.643784                       # Number of insts commited each cycle
system.switch_cpus_1.commit.committed_per_cycle::stdev     2.787504                       # Number of insts commited each cycle
system.switch_cpus_1.commit.committed_per_cycle::underflows            0      0.00%      0.00% # Number of insts commited each cycle
system.switch_cpus_1.commit.committed_per_cycle::0     72636064     58.08%     58.08% # Number of insts commited each cycle
system.switch_cpus_1.commit.committed_per_cycle::1     22061927     17.64%     75.72% # Number of insts commited each cycle
system.switch_cpus_1.commit.committed_per_cycle::2      4729338      3.78%     79.50% # Number of insts commited each cycle
system.switch_cpus_1.commit.committed_per_cycle::3      2905346      2.32%     81.82% # Number of insts commited each cycle
system.switch_cpus_1.commit.committed_per_cycle::4      2154136      1.72%     83.54% # Number of insts commited each cycle
system.switch_cpus_1.commit.committed_per_cycle::5       907277      0.73%     84.27% # Number of insts commited each cycle
system.switch_cpus_1.commit.committed_per_cycle::6      2174103      1.74%     86.01% # Number of insts commited each cycle
system.switch_cpus_1.commit.committed_per_cycle::7       859354      0.69%     86.69% # Number of insts commited each cycle
system.switch_cpus_1.commit.committed_per_cycle::8     16642264     13.31%    100.00% # Number of insts commited each cycle
system.switch_cpus_1.commit.committed_per_cycle::overflows            0      0.00%    100.00% # Number of insts commited each cycle
system.switch_cpus_1.commit.committed_per_cycle::min_value            0                       # Number of insts commited each cycle
system.switch_cpus_1.commit.committed_per_cycle::max_value            8                       # Number of insts commited each cycle
system.switch_cpus_1.commit.committed_per_cycle::total    125069809                       # Number of insts commited each cycle
system.switch_cpus_1.commit.committedInsts    205587778                       # Number of instructions committed
system.switch_cpus_1.commit.committedOps    205587778                       # Number of ops (including micro ops) committed
system.switch_cpus_1.commit.swp_count               0                       # Number of s/w prefetches committed
system.switch_cpus_1.commit.refs             42978589                       # Number of memory references committed
system.switch_cpus_1.commit.loads            30171801                       # Number of loads committed
system.switch_cpus_1.commit.membars               530                       # Number of memory barriers committed
system.switch_cpus_1.commit.branches         16841234                       # Number of branches committed
system.switch_cpus_1.commit.fp_insts        121009933                       # Number of committed floating point instructions.
system.switch_cpus_1.commit.int_insts       111742899                       # Number of committed integer instructions.
system.switch_cpus_1.commit.function_calls      1810278                       # Number of function calls committed.
system.switch_cpus_1.commit.op_class_0::No_OpClass      5587774      2.72%      2.72% # Class of committed instruction
system.switch_cpus_1.commit.op_class_0::IntAlu     66796729     32.49%     35.21% # Class of committed instruction
system.switch_cpus_1.commit.op_class_0::IntMult       802505      0.39%     35.60% # Class of committed instruction
system.switch_cpus_1.commit.op_class_0::IntDiv            0      0.00%     35.60% # Class of committed instruction
system.switch_cpus_1.commit.op_class_0::FloatAdd     57123504     27.79%     63.38% # Class of committed instruction
system.switch_cpus_1.commit.op_class_0::FloatCmp      4994353      2.43%     65.81% # Class of committed instruction
system.switch_cpus_1.commit.op_class_0::FloatCvt      3095320      1.51%     67.32% # Class of committed instruction
system.switch_cpus_1.commit.op_class_0::FloatMult     24208317     11.78%     79.09% # Class of committed instruction
system.switch_cpus_1.commit.op_class_0::FloatMultAcc            0      0.00%     79.09% # Class of committed instruction
system.switch_cpus_1.commit.op_class_0::FloatDiv          116      0.00%     79.09% # Class of committed instruction
system.switch_cpus_1.commit.op_class_0::FloatMisc            0      0.00%     79.09% # Class of committed instruction
system.switch_cpus_1.commit.op_class_0::FloatSqrt           41      0.00%     79.09% # Class of committed instruction
system.switch_cpus_1.commit.op_class_0::SimdAdd            0      0.00%     79.09% # Class of committed instruction
system.switch_cpus_1.commit.op_class_0::SimdAddAcc            0      0.00%     79.09% # Class of committed instruction
system.switch_cpus_1.commit.op_class_0::SimdAlu            0      0.00%     79.09% # Class of committed instruction
system.switch_cpus_1.commit.op_class_0::SimdCmp            0      0.00%     79.09% # Class of committed instruction
system.switch_cpus_1.commit.op_class_0::SimdCvt            0      0.00%     79.09% # Class of committed instruction
system.switch_cpus_1.commit.op_class_0::SimdMisc            0      0.00%     79.09% # Class of committed instruction
system.switch_cpus_1.commit.op_class_0::SimdMult            0      0.00%     79.09% # Class of committed instruction
system.switch_cpus_1.commit.op_class_0::SimdMultAcc            0      0.00%     79.09% # Class of committed instruction
system.switch_cpus_1.commit.op_class_0::SimdShift            0      0.00%     79.09% # Class of committed instruction
system.switch_cpus_1.commit.op_class_0::SimdShiftAcc            0      0.00%     79.09% # Class of committed instruction
system.switch_cpus_1.commit.op_class_0::SimdSqrt            0      0.00%     79.09% # Class of committed instruction
system.switch_cpus_1.commit.op_class_0::SimdFloatAdd            0      0.00%     79.09% # Class of committed instruction
system.switch_cpus_1.commit.op_class_0::SimdFloatAlu            0      0.00%     79.09% # Class of committed instruction
system.switch_cpus_1.commit.op_class_0::SimdFloatCmp            0      0.00%     79.09% # Class of committed instruction
system.switch_cpus_1.commit.op_class_0::SimdFloatCvt            0      0.00%     79.09% # Class of committed instruction
system.switch_cpus_1.commit.op_class_0::SimdFloatDiv            0      0.00%     79.09% # Class of committed instruction
system.switch_cpus_1.commit.op_class_0::SimdFloatMisc            0      0.00%     79.09% # Class of committed instruction
system.switch_cpus_1.commit.op_class_0::SimdFloatMult            0      0.00%     79.09% # Class of committed instruction
system.switch_cpus_1.commit.op_class_0::SimdFloatMultAcc            0      0.00%     79.09% # Class of committed instruction
system.switch_cpus_1.commit.op_class_0::SimdFloatSqrt            0      0.00%     79.09% # Class of committed instruction
system.switch_cpus_1.commit.op_class_0::MemRead      6947129      3.38%     82.47% # Class of committed instruction
system.switch_cpus_1.commit.op_class_0::MemWrite      4443708      2.16%     84.64% # Class of committed instruction
system.switch_cpus_1.commit.op_class_0::FloatMemRead     23225202     11.30%     95.93% # Class of committed instruction
system.switch_cpus_1.commit.op_class_0::FloatMemWrite      8363080      4.07%    100.00% # Class of committed instruction
system.switch_cpus_1.commit.op_class_0::IprAccess            0      0.00%    100.00% # Class of committed instruction
system.switch_cpus_1.commit.op_class_0::InstPrefetch            0      0.00%    100.00% # Class of committed instruction
system.switch_cpus_1.commit.op_class_0::total    205587778                       # Class of committed instruction
system.switch_cpus_1.commit.bw_lim_events     16642264                       # number cycles where commit BW limit reached
system.switch_cpus_1.rob.rob_reads          330505054                       # The number of ROB reads
system.switch_cpus_1.rob.rob_writes         446516785                       # The number of ROB writes
system.switch_cpus_1.timesIdled                  1534                       # Number of times that the entire CPU went into an idle state and unscheduled itself
system.switch_cpus_1.idleCycles                199689                       # Total number of cycles that the CPU has spent unscheduled due to idling
system.switch_cpus_1.committedInsts         200000004                       # Number of Instructions Simulated
system.switch_cpus_1.committedOps           200000004                       # Number of Ops (including micro ops) Simulated
system.switch_cpus_1.cpi                     0.637406                       # CPI: Cycles Per Instruction
system.switch_cpus_1.cpi_total               0.637406                       # CPI: Total CPI of All Threads
system.switch_cpus_1.ipc                     1.568860                       # IPC: Instructions Per Cycle
system.switch_cpus_1.ipc_total               1.568860                       # IPC: Total IPC of All Threads
system.switch_cpus_1.int_regfile_reads      143688300                       # number of integer regfile reads
system.switch_cpus_1.int_regfile_writes      69424103                       # number of integer regfile writes
system.switch_cpus_1.fp_regfile_reads       186913801                       # number of floating regfile reads
system.switch_cpus_1.fp_regfile_writes      111269447                       # number of floating regfile writes
system.switch_cpus_1.misc_regfile_reads      56347191                       # number of misc regfile reads
system.switch_cpus_1.misc_regfile_writes         1060                       # number of misc regfile writes
system.tol3bus.snoop_filter.tot_requests      6318610                       # Total number of requests made to the snoop filter.
system.tol3bus.snoop_filter.hit_single_requests      3157086                       # Number of requests hitting in the snoop filter with a single holder of the requested data.
system.tol3bus.snoop_filter.hit_multi_requests            0                       # Number of requests hitting in the snoop filter with multiple (>1) holders of the requested data.
system.tol3bus.snoop_filter.tot_snoops            216                       # Total number of snoops made to the snoop filter.
system.tol3bus.snoop_filter.hit_single_snoops          216                       # Number of snoops hitting in the snoop filter with a single holder of the requested data.
system.tol3bus.snoop_filter.hit_multi_snoops            0                       # Number of snoops hitting in the snoop filter with multiple (>1) holders of the requested data.
system.tol3bus.pwrStateResidencyTicks::UNDEFINED 310860484380297                       # Cumulative time (in ticks) in various power states
system.tol3bus.trans_dist::ReadResp           2177109                       # Transaction distribution
system.tol3bus.trans_dist::WritebackDirty      2354650                       # Transaction distribution
system.tol3bus.trans_dist::CleanEvict          828759                       # Transaction distribution
system.tol3bus.trans_dist::ReadExReq           984415                       # Transaction distribution
system.tol3bus.trans_dist::ReadExResp          984415                       # Transaction distribution
system.tol3bus.trans_dist::ReadSharedReq      2177109                       # Transaction distribution
system.tol3bus.pkt_count_system.cpu.l2.mem_side::system.l3.cpu_side      9480134                       # Packet count per connected master and slave (bytes)
system.tol3bus.pkt_size_system.cpu.l2.mem_side::system.l3.cpu_side    352728192                       # Cumulative packet size per connected master and slave (bytes)
system.tol3bus.snoops                           26323                       # Total snoops (count)
system.tol3bus.snoopTraffic                    306944                       # Total snoop traffic (bytes)
system.tol3bus.snoop_fanout::samples          3187847                       # Request fanout histogram
system.tol3bus.snoop_fanout::mean            0.000068                       # Request fanout histogram
system.tol3bus.snoop_fanout::stdev           0.008231                       # Request fanout histogram
system.tol3bus.snoop_fanout::underflows             0      0.00%      0.00% # Request fanout histogram
system.tol3bus.snoop_fanout::0                3187631     99.99%     99.99% # Request fanout histogram
system.tol3bus.snoop_fanout::1                    216      0.01%    100.00% # Request fanout histogram
system.tol3bus.snoop_fanout::overflows              0      0.00%    100.00% # Request fanout histogram
system.tol3bus.snoop_fanout::min_value              0                       # Request fanout histogram
system.tol3bus.snoop_fanout::max_value              1                       # Request fanout histogram
system.tol3bus.snoop_fanout::total            3187847                       # Request fanout histogram
system.tol3bus.reqLayer0.occupancy         2886598512                       # Layer occupancy (ticks)
system.tol3bus.reqLayer0.utilization              0.3                       # Layer utilization (%)
system.tol3bus.respLayer0.occupancy        2105574984                       # Layer occupancy (ticks)
system.tol3bus.respLayer0.utilization             0.2                       # Layer utilization (%)

---------- End Simulation Statistics   ----------
