
---------- Begin Simulation Statistics ----------
sim_seconds                                  1.779080                       # Number of seconds simulated
sim_ticks                                1779080490648                       # Number of ticks simulated
final_tick                               75049234291350                       # Number of ticks from beginning of simulation (restored from checkpoints and never reset)
sim_freq                                 1000000000000                       # Frequency of simulated ticks
host_inst_rate                                 360237                       # Simulator instruction rate (inst/s)
host_op_rate                                   360237                       # Simulator op (including micro ops) rate (op/s)
host_tick_rate                              534075077                       # Simulator tick rate (ticks/s)
host_mem_usage                                2403892                       # Number of bytes of host memory used
host_seconds                                  3331.14                       # Real time elapsed on the host
sim_insts                                  1200000010                       # Number of instructions simulated
sim_ops                                    1200000010                       # Number of ops (including micro ops) simulated
system.voltage_domain.voltage                       1                       # Voltage in Volts
system.clk_domain.clock                          1000                       # Clock period in ticks
system.mem_ctrls0.pwrStateResidencyTicks::UNDEFINED 75049234291350                       # Cumulative time (in ticks) in various power states
system.mem_ctrls0.bytes_read::cpu.inst            128                       # Number of bytes read from this memory
system.mem_ctrls0.bytes_read::cpu.data            192                       # Number of bytes read from this memory
system.mem_ctrls0.bytes_read::switch_cpus.inst        43968                       # Number of bytes read from this memory
system.mem_ctrls0.bytes_read::switch_cpus.data    233413312                       # Number of bytes read from this memory
system.mem_ctrls0.bytes_read::switch_cpus_1.inst         3392                       # Number of bytes read from this memory
system.mem_ctrls0.bytes_read::switch_cpus_1.data     40920064                       # Number of bytes read from this memory
system.mem_ctrls0.bytes_read::total         274381056                       # Number of bytes read from this memory
system.mem_ctrls0.bytes_inst_read::cpu.inst          128                       # Number of instructions bytes read from this memory
system.mem_ctrls0.bytes_inst_read::switch_cpus.inst        43968                       # Number of instructions bytes read from this memory
system.mem_ctrls0.bytes_inst_read::switch_cpus_1.inst         3392                       # Number of instructions bytes read from this memory
system.mem_ctrls0.bytes_inst_read::total        47488                       # Number of instructions bytes read from this memory
system.mem_ctrls0.bytes_written::writebacks     87645696                       # Number of bytes written to this memory
system.mem_ctrls0.bytes_written::total       87645696                       # Number of bytes written to this memory
system.mem_ctrls0.num_reads::cpu.inst               2                       # Number of read requests responded to by this memory
system.mem_ctrls0.num_reads::cpu.data               3                       # Number of read requests responded to by this memory
system.mem_ctrls0.num_reads::switch_cpus.inst          687                       # Number of read requests responded to by this memory
system.mem_ctrls0.num_reads::switch_cpus.data      3647083                       # Number of read requests responded to by this memory
system.mem_ctrls0.num_reads::switch_cpus_1.inst           53                       # Number of read requests responded to by this memory
system.mem_ctrls0.num_reads::switch_cpus_1.data       639376                       # Number of read requests responded to by this memory
system.mem_ctrls0.num_reads::total            4287204                       # Number of read requests responded to by this memory
system.mem_ctrls0.num_writes::writebacks      1369464                       # Number of write requests responded to by this memory
system.mem_ctrls0.num_writes::total           1369464                       # Number of write requests responded to by this memory
system.mem_ctrls0.bw_read::cpu.inst                72                       # Total read bandwidth from this memory (bytes/s)
system.mem_ctrls0.bw_read::cpu.data               108                       # Total read bandwidth from this memory (bytes/s)
system.mem_ctrls0.bw_read::switch_cpus.inst        24714                       # Total read bandwidth from this memory (bytes/s)
system.mem_ctrls0.bw_read::switch_cpus.data    131198849                       # Total read bandwidth from this memory (bytes/s)
system.mem_ctrls0.bw_read::switch_cpus_1.inst         1907                       # Total read bandwidth from this memory (bytes/s)
system.mem_ctrls0.bw_read::switch_cpus_1.data     23000682                       # Total read bandwidth from this memory (bytes/s)
system.mem_ctrls0.bw_read::total            154226331                       # Total read bandwidth from this memory (bytes/s)
system.mem_ctrls0.bw_inst_read::cpu.inst           72                       # Instruction read bandwidth from this memory (bytes/s)
system.mem_ctrls0.bw_inst_read::switch_cpus.inst        24714                       # Instruction read bandwidth from this memory (bytes/s)
system.mem_ctrls0.bw_inst_read::switch_cpus_1.inst         1907                       # Instruction read bandwidth from this memory (bytes/s)
system.mem_ctrls0.bw_inst_read::total           26692                       # Instruction read bandwidth from this memory (bytes/s)
system.mem_ctrls0.bw_write::writebacks       49264604                       # Write bandwidth from this memory (bytes/s)
system.mem_ctrls0.bw_write::total            49264604                       # Write bandwidth from this memory (bytes/s)
system.mem_ctrls0.bw_total::writebacks       49264604                       # Total bandwidth to/from this memory (bytes/s)
system.mem_ctrls0.bw_total::cpu.inst               72                       # Total bandwidth to/from this memory (bytes/s)
system.mem_ctrls0.bw_total::cpu.data              108                       # Total bandwidth to/from this memory (bytes/s)
system.mem_ctrls0.bw_total::switch_cpus.inst        24714                       # Total bandwidth to/from this memory (bytes/s)
system.mem_ctrls0.bw_total::switch_cpus.data    131198849                       # Total bandwidth to/from this memory (bytes/s)
system.mem_ctrls0.bw_total::switch_cpus_1.inst         1907                       # Total bandwidth to/from this memory (bytes/s)
system.mem_ctrls0.bw_total::switch_cpus_1.data     23000682                       # Total bandwidth to/from this memory (bytes/s)
system.mem_ctrls0.bw_total::total           203490935                       # Total bandwidth to/from this memory (bytes/s)
system.mem_ctrls0.readReqs                    4287206                       # Number of read requests accepted
system.mem_ctrls0.writeReqs                   1369464                       # Number of write requests accepted
system.mem_ctrls0.readBursts                  4287206                       # Number of DRAM read bursts, including those serviced by the write queue
system.mem_ctrls0.writeBursts                 1369464                       # Number of DRAM write bursts, including those merged in the write queue
system.mem_ctrls0.bytesReadDRAM             274350784                       # Total number of bytes read from DRAM
system.mem_ctrls0.bytesReadWrQ                  30400                       # Total number of bytes read from write queue
system.mem_ctrls0.bytesWritten               87643648                       # Total number of bytes written to DRAM
system.mem_ctrls0.bytesReadSys              274381184                       # Total read bytes from the system interface side
system.mem_ctrls0.bytesWrittenSys            87645696                       # Total written bytes from the system interface side
system.mem_ctrls0.servicedByWrQ                   475                       # Number of DRAM read bursts serviced by the write queue
system.mem_ctrls0.mergedWrBursts                    0                       # Number of DRAM write bursts merged with an existing one
system.mem_ctrls0.neitherReadNorWriteReqs            0                       # Number of requests that are neither read nor write
system.mem_ctrls0.perBankRdBursts::0           273493                       # Per bank write bursts
system.mem_ctrls0.perBankRdBursts::1           270779                       # Per bank write bursts
system.mem_ctrls0.perBankRdBursts::2           267612                       # Per bank write bursts
system.mem_ctrls0.perBankRdBursts::3           267970                       # Per bank write bursts
system.mem_ctrls0.perBankRdBursts::4           267631                       # Per bank write bursts
system.mem_ctrls0.perBankRdBursts::5           269290                       # Per bank write bursts
system.mem_ctrls0.perBankRdBursts::6           269558                       # Per bank write bursts
system.mem_ctrls0.perBankRdBursts::7           270561                       # Per bank write bursts
system.mem_ctrls0.perBankRdBursts::8           272174                       # Per bank write bursts
system.mem_ctrls0.perBankRdBursts::9           269670                       # Per bank write bursts
system.mem_ctrls0.perBankRdBursts::10          264384                       # Per bank write bursts
system.mem_ctrls0.perBankRdBursts::11          260857                       # Per bank write bursts
system.mem_ctrls0.perBankRdBursts::12          260084                       # Per bank write bursts
system.mem_ctrls0.perBankRdBursts::13          264147                       # Per bank write bursts
system.mem_ctrls0.perBankRdBursts::14          269053                       # Per bank write bursts
system.mem_ctrls0.perBankRdBursts::15          269468                       # Per bank write bursts
system.mem_ctrls0.perBankWrBursts::0            88059                       # Per bank write bursts
system.mem_ctrls0.perBankWrBursts::1            86653                       # Per bank write bursts
system.mem_ctrls0.perBankWrBursts::2            86072                       # Per bank write bursts
system.mem_ctrls0.perBankWrBursts::3            86994                       # Per bank write bursts
system.mem_ctrls0.perBankWrBursts::4            87684                       # Per bank write bursts
system.mem_ctrls0.perBankWrBursts::5            87714                       # Per bank write bursts
system.mem_ctrls0.perBankWrBursts::6            85200                       # Per bank write bursts
system.mem_ctrls0.perBankWrBursts::7            84508                       # Per bank write bursts
system.mem_ctrls0.perBankWrBursts::8            84974                       # Per bank write bursts
system.mem_ctrls0.perBankWrBursts::9            85317                       # Per bank write bursts
system.mem_ctrls0.perBankWrBursts::10           84645                       # Per bank write bursts
system.mem_ctrls0.perBankWrBursts::11           83361                       # Per bank write bursts
system.mem_ctrls0.perBankWrBursts::12           82360                       # Per bank write bursts
system.mem_ctrls0.perBankWrBursts::13           83407                       # Per bank write bursts
system.mem_ctrls0.perBankWrBursts::14           86033                       # Per bank write bursts
system.mem_ctrls0.perBankWrBursts::15           86451                       # Per bank write bursts
system.mem_ctrls0.numRdRetry                        0                       # Number of times read queue was full causing retry
system.mem_ctrls0.numWrRetry                        0                       # Number of times write queue was full causing retry
system.mem_ctrls0.totGap                 1779080376408                       # Total gap between requests
system.mem_ctrls0.readPktSize::0                    0                       # Read request sizes (log2)
system.mem_ctrls0.readPktSize::1                    0                       # Read request sizes (log2)
system.mem_ctrls0.readPktSize::2                    0                       # Read request sizes (log2)
system.mem_ctrls0.readPktSize::3                    0                       # Read request sizes (log2)
system.mem_ctrls0.readPktSize::4                    0                       # Read request sizes (log2)
system.mem_ctrls0.readPktSize::5                    0                       # Read request sizes (log2)
system.mem_ctrls0.readPktSize::6              4287206                       # Read request sizes (log2)
system.mem_ctrls0.writePktSize::0                   0                       # Write request sizes (log2)
system.mem_ctrls0.writePktSize::1                   0                       # Write request sizes (log2)
system.mem_ctrls0.writePktSize::2                   0                       # Write request sizes (log2)
system.mem_ctrls0.writePktSize::3                   0                       # Write request sizes (log2)
system.mem_ctrls0.writePktSize::4                   0                       # Write request sizes (log2)
system.mem_ctrls0.writePktSize::5                   0                       # Write request sizes (log2)
system.mem_ctrls0.writePktSize::6             1369464                       # Write request sizes (log2)
system.mem_ctrls0.rdQLenPdf::0                4090866                       # What read queue length does an incoming req see
system.mem_ctrls0.rdQLenPdf::1                 156988                       # What read queue length does an incoming req see
system.mem_ctrls0.rdQLenPdf::2                  36281                       # What read queue length does an incoming req see
system.mem_ctrls0.rdQLenPdf::3                   2596                       # What read queue length does an incoming req see
system.mem_ctrls0.rdQLenPdf::4                      0                       # What read queue length does an incoming req see
system.mem_ctrls0.rdQLenPdf::5                      0                       # What read queue length does an incoming req see
system.mem_ctrls0.rdQLenPdf::6                      0                       # What read queue length does an incoming req see
system.mem_ctrls0.rdQLenPdf::7                      0                       # What read queue length does an incoming req see
system.mem_ctrls0.rdQLenPdf::8                      0                       # What read queue length does an incoming req see
system.mem_ctrls0.rdQLenPdf::9                      0                       # What read queue length does an incoming req see
system.mem_ctrls0.rdQLenPdf::10                     0                       # What read queue length does an incoming req see
system.mem_ctrls0.rdQLenPdf::11                     0                       # What read queue length does an incoming req see
system.mem_ctrls0.rdQLenPdf::12                     0                       # What read queue length does an incoming req see
system.mem_ctrls0.rdQLenPdf::13                     0                       # What read queue length does an incoming req see
system.mem_ctrls0.rdQLenPdf::14                     0                       # What read queue length does an incoming req see
system.mem_ctrls0.rdQLenPdf::15                     0                       # What read queue length does an incoming req see
system.mem_ctrls0.rdQLenPdf::16                     0                       # What read queue length does an incoming req see
system.mem_ctrls0.rdQLenPdf::17                     0                       # What read queue length does an incoming req see
system.mem_ctrls0.rdQLenPdf::18                     0                       # What read queue length does an incoming req see
system.mem_ctrls0.rdQLenPdf::19                     0                       # What read queue length does an incoming req see
system.mem_ctrls0.rdQLenPdf::20                     0                       # What read queue length does an incoming req see
system.mem_ctrls0.rdQLenPdf::21                     0                       # What read queue length does an incoming req see
system.mem_ctrls0.rdQLenPdf::22                     0                       # What read queue length does an incoming req see
system.mem_ctrls0.rdQLenPdf::23                     0                       # What read queue length does an incoming req see
system.mem_ctrls0.rdQLenPdf::24                     0                       # What read queue length does an incoming req see
system.mem_ctrls0.rdQLenPdf::25                     0                       # What read queue length does an incoming req see
system.mem_ctrls0.rdQLenPdf::26                     0                       # What read queue length does an incoming req see
system.mem_ctrls0.rdQLenPdf::27                     0                       # What read queue length does an incoming req see
system.mem_ctrls0.rdQLenPdf::28                     0                       # What read queue length does an incoming req see
system.mem_ctrls0.rdQLenPdf::29                     0                       # What read queue length does an incoming req see
system.mem_ctrls0.rdQLenPdf::30                     0                       # What read queue length does an incoming req see
system.mem_ctrls0.rdQLenPdf::31                     0                       # What read queue length does an incoming req see
system.mem_ctrls0.wrQLenPdf::0                      2                       # What write queue length does an incoming req see
system.mem_ctrls0.wrQLenPdf::1                      2                       # What write queue length does an incoming req see
system.mem_ctrls0.wrQLenPdf::2                      2                       # What write queue length does an incoming req see
system.mem_ctrls0.wrQLenPdf::3                      2                       # What write queue length does an incoming req see
system.mem_ctrls0.wrQLenPdf::4                      2                       # What write queue length does an incoming req see
system.mem_ctrls0.wrQLenPdf::5                      2                       # What write queue length does an incoming req see
system.mem_ctrls0.wrQLenPdf::6                      2                       # What write queue length does an incoming req see
system.mem_ctrls0.wrQLenPdf::7                      2                       # What write queue length does an incoming req see
system.mem_ctrls0.wrQLenPdf::8                      2                       # What write queue length does an incoming req see
system.mem_ctrls0.wrQLenPdf::9                      2                       # What write queue length does an incoming req see
system.mem_ctrls0.wrQLenPdf::10                     2                       # What write queue length does an incoming req see
system.mem_ctrls0.wrQLenPdf::11                     2                       # What write queue length does an incoming req see
system.mem_ctrls0.wrQLenPdf::12                     2                       # What write queue length does an incoming req see
system.mem_ctrls0.wrQLenPdf::13                     2                       # What write queue length does an incoming req see
system.mem_ctrls0.wrQLenPdf::14                     2                       # What write queue length does an incoming req see
system.mem_ctrls0.wrQLenPdf::15                 41354                       # What write queue length does an incoming req see
system.mem_ctrls0.wrQLenPdf::16                 43229                       # What write queue length does an incoming req see
system.mem_ctrls0.wrQLenPdf::17                 75785                       # What write queue length does an incoming req see
system.mem_ctrls0.wrQLenPdf::18                 79778                       # What write queue length does an incoming req see
system.mem_ctrls0.wrQLenPdf::19                 80545                       # What write queue length does an incoming req see
system.mem_ctrls0.wrQLenPdf::20                 80625                       # What write queue length does an incoming req see
system.mem_ctrls0.wrQLenPdf::21                 80619                       # What write queue length does an incoming req see
system.mem_ctrls0.wrQLenPdf::22                 80603                       # What write queue length does an incoming req see
system.mem_ctrls0.wrQLenPdf::23                 80651                       # What write queue length does an incoming req see
system.mem_ctrls0.wrQLenPdf::24                 80656                       # What write queue length does an incoming req see
system.mem_ctrls0.wrQLenPdf::25                 80705                       # What write queue length does an incoming req see
system.mem_ctrls0.wrQLenPdf::26                 80707                       # What write queue length does an incoming req see
system.mem_ctrls0.wrQLenPdf::27                 80751                       # What write queue length does an incoming req see
system.mem_ctrls0.wrQLenPdf::28                 81029                       # What write queue length does an incoming req see
system.mem_ctrls0.wrQLenPdf::29                 81132                       # What write queue length does an incoming req see
system.mem_ctrls0.wrQLenPdf::30                 80742                       # What write queue length does an incoming req see
system.mem_ctrls0.wrQLenPdf::31                 80273                       # What write queue length does an incoming req see
system.mem_ctrls0.wrQLenPdf::32                 80154                       # What write queue length does an incoming req see
system.mem_ctrls0.wrQLenPdf::33                    86                       # What write queue length does an incoming req see
system.mem_ctrls0.wrQLenPdf::34                     8                       # What write queue length does an incoming req see
system.mem_ctrls0.wrQLenPdf::35                     2                       # What write queue length does an incoming req see
system.mem_ctrls0.wrQLenPdf::36                     0                       # What write queue length does an incoming req see
system.mem_ctrls0.wrQLenPdf::37                     0                       # What write queue length does an incoming req see
system.mem_ctrls0.wrQLenPdf::38                     0                       # What write queue length does an incoming req see
system.mem_ctrls0.wrQLenPdf::39                     0                       # What write queue length does an incoming req see
system.mem_ctrls0.wrQLenPdf::40                     0                       # What write queue length does an incoming req see
system.mem_ctrls0.wrQLenPdf::41                     0                       # What write queue length does an incoming req see
system.mem_ctrls0.wrQLenPdf::42                     0                       # What write queue length does an incoming req see
system.mem_ctrls0.wrQLenPdf::43                     0                       # What write queue length does an incoming req see
system.mem_ctrls0.wrQLenPdf::44                     0                       # What write queue length does an incoming req see
system.mem_ctrls0.wrQLenPdf::45                     0                       # What write queue length does an incoming req see
system.mem_ctrls0.wrQLenPdf::46                     0                       # What write queue length does an incoming req see
system.mem_ctrls0.wrQLenPdf::47                     0                       # What write queue length does an incoming req see
system.mem_ctrls0.wrQLenPdf::48                     0                       # What write queue length does an incoming req see
system.mem_ctrls0.wrQLenPdf::49                     0                       # What write queue length does an incoming req see
system.mem_ctrls0.wrQLenPdf::50                     0                       # What write queue length does an incoming req see
system.mem_ctrls0.wrQLenPdf::51                     0                       # What write queue length does an incoming req see
system.mem_ctrls0.wrQLenPdf::52                     0                       # What write queue length does an incoming req see
system.mem_ctrls0.wrQLenPdf::53                     0                       # What write queue length does an incoming req see
system.mem_ctrls0.wrQLenPdf::54                     0                       # What write queue length does an incoming req see
system.mem_ctrls0.wrQLenPdf::55                     0                       # What write queue length does an incoming req see
system.mem_ctrls0.wrQLenPdf::56                     0                       # What write queue length does an incoming req see
system.mem_ctrls0.wrQLenPdf::57                     0                       # What write queue length does an incoming req see
system.mem_ctrls0.wrQLenPdf::58                     0                       # What write queue length does an incoming req see
system.mem_ctrls0.wrQLenPdf::59                     0                       # What write queue length does an incoming req see
system.mem_ctrls0.wrQLenPdf::60                     0                       # What write queue length does an incoming req see
system.mem_ctrls0.wrQLenPdf::61                     0                       # What write queue length does an incoming req see
system.mem_ctrls0.wrQLenPdf::62                     0                       # What write queue length does an incoming req see
system.mem_ctrls0.wrQLenPdf::63                     0                       # What write queue length does an incoming req see
system.mem_ctrls0.bytesPerActivate::samples      2416790                       # Bytes accessed per row activation
system.mem_ctrls0.bytesPerActivate::mean   149.781699                       # Bytes accessed per row activation
system.mem_ctrls0.bytesPerActivate::gmean   110.761122                       # Bytes accessed per row activation
system.mem_ctrls0.bytesPerActivate::stdev   155.242931                       # Bytes accessed per row activation
system.mem_ctrls0.bytesPerActivate::0-127      1247319     51.61%     51.61% # Bytes accessed per row activation
system.mem_ctrls0.bytesPerActivate::128-255       803823     33.26%     84.87% # Bytes accessed per row activation
system.mem_ctrls0.bytesPerActivate::256-383       144863      5.99%     90.86% # Bytes accessed per row activation
system.mem_ctrls0.bytesPerActivate::384-511        74606      3.09%     93.95% # Bytes accessed per row activation
system.mem_ctrls0.bytesPerActivate::512-639        69598      2.88%     96.83% # Bytes accessed per row activation
system.mem_ctrls0.bytesPerActivate::640-767        32293      1.34%     98.17% # Bytes accessed per row activation
system.mem_ctrls0.bytesPerActivate::768-895        26302      1.09%     99.26% # Bytes accessed per row activation
system.mem_ctrls0.bytesPerActivate::896-1023         9162      0.38%     99.63% # Bytes accessed per row activation
system.mem_ctrls0.bytesPerActivate::1024-1151         8824      0.37%    100.00% # Bytes accessed per row activation
system.mem_ctrls0.bytesPerActivate::total      2416790                       # Bytes accessed per row activation
system.mem_ctrls0.rdPerTurnAround::samples        80078                       # Reads before turning the bus around for writes
system.mem_ctrls0.rdPerTurnAround::mean     53.530982                       # Reads before turning the bus around for writes
system.mem_ctrls0.rdPerTurnAround::gmean    47.862004                       # Reads before turning the bus around for writes
system.mem_ctrls0.rdPerTurnAround::stdev   114.546222                       # Reads before turning the bus around for writes
system.mem_ctrls0.rdPerTurnAround::0-1023        80077    100.00%    100.00% # Reads before turning the bus around for writes
system.mem_ctrls0.rdPerTurnAround::30720-31743            1      0.00%    100.00% # Reads before turning the bus around for writes
system.mem_ctrls0.rdPerTurnAround::total        80078                       # Reads before turning the bus around for writes
system.mem_ctrls0.wrPerTurnAround::samples        80078                       # Writes before turning the bus around for reads
system.mem_ctrls0.wrPerTurnAround::mean     17.101226                       # Writes before turning the bus around for reads
system.mem_ctrls0.wrPerTurnAround::gmean    17.068657                       # Writes before turning the bus around for reads
system.mem_ctrls0.wrPerTurnAround::stdev     1.056288                       # Writes before turning the bus around for reads
system.mem_ctrls0.wrPerTurnAround::16           37040     46.25%     46.25% # Writes before turning the bus around for reads
system.mem_ctrls0.wrPerTurnAround::17            1466      1.83%     48.09% # Writes before turning the bus around for reads
system.mem_ctrls0.wrPerTurnAround::18           38350     47.89%     95.98% # Writes before turning the bus around for reads
system.mem_ctrls0.wrPerTurnAround::19            2924      3.65%     99.63% # Writes before turning the bus around for reads
system.mem_ctrls0.wrPerTurnAround::20             253      0.32%     99.94% # Writes before turning the bus around for reads
system.mem_ctrls0.wrPerTurnAround::21              37      0.05%     99.99% # Writes before turning the bus around for reads
system.mem_ctrls0.wrPerTurnAround::22               7      0.01%    100.00% # Writes before turning the bus around for reads
system.mem_ctrls0.wrPerTurnAround::23               1      0.00%    100.00% # Writes before turning the bus around for reads
system.mem_ctrls0.wrPerTurnAround::total        80078                       # Writes before turning the bus around for reads
system.mem_ctrls0.totQLat                 92743022902                       # Total ticks spent queuing
system.mem_ctrls0.totMemAccLat           173119229152                       # Total ticks spent from burst creation until serviced by the DRAM
system.mem_ctrls0.totBusLat               21433655000                       # Total ticks spent in databus transfers
system.mem_ctrls0.avgQLat                    21634.91                       # Average queueing delay per DRAM burst
system.mem_ctrls0.avgBusLat                   5000.00                       # Average bus latency per DRAM burst
system.mem_ctrls0.avgMemAccLat               40384.91                       # Average memory access latency per DRAM burst
system.mem_ctrls0.avgRdBW                      154.21                       # Average DRAM read bandwidth in MiByte/s
system.mem_ctrls0.avgWrBW                       49.26                       # Average achieved write bandwidth in MiByte/s
system.mem_ctrls0.avgRdBWSys                   154.23                       # Average system read bandwidth in MiByte/s
system.mem_ctrls0.avgWrBWSys                    49.26                       # Average system write bandwidth in MiByte/s
system.mem_ctrls0.peakBW                     12800.00                       # Theoretical peak bandwidth in MiByte/s
system.mem_ctrls0.busUtil                        1.59                       # Data bus utilization in percentage
system.mem_ctrls0.busUtilRead                    1.20                       # Data bus utilization in percentage for reads
system.mem_ctrls0.busUtilWrite                   0.38                       # Data bus utilization in percentage for writes
system.mem_ctrls0.avgRdQLen                      1.02                       # Average read queue length when enqueuing
system.mem_ctrls0.avgWrQLen                     24.56                       # Average write queue length when enqueuing
system.mem_ctrls0.readRowHits                 2696282                       # Number of row buffer hits during reads
system.mem_ctrls0.writeRowHits                 543081                       # Number of row buffer hits during writes
system.mem_ctrls0.readRowHitRate                62.90                       # Row buffer hit rate for reads
system.mem_ctrls0.writeRowHitRate               39.66                       # Row buffer hit rate for writes
system.mem_ctrls0.avgGap                    314510.19                       # Average gap between requests
system.mem_ctrls0.pageHitRate                   57.27                       # Row buffer hit rate, read and write combined
system.mem_ctrls0_0.actEnergy              8689315740                       # Energy for activate commands per rank (pJ)
system.mem_ctrls0_0.preEnergy              4618454280                       # Energy for precharge commands per rank (pJ)
system.mem_ctrls0_0.readEnergy            15400223160                       # Energy for read commands per rank (pJ)
system.mem_ctrls0_0.writeEnergy            3616854480                       # Energy for write commands per rank (pJ)
system.mem_ctrls0_0.refreshEnergy        138585954000.000031                       # Energy for refresh commands per rank (pJ)
system.mem_ctrls0_0.actBackEnergy         90643148190                       # Energy for active background per rank (pJ)
system.mem_ctrls0_0.preBackEnergy          5006004000                       # Energy for precharge background per rank (pJ)
system.mem_ctrls0_0.actPowerDownEnergy   530577120210                       # Energy for active power-down per rank (pJ)
system.mem_ctrls0_0.prePowerDownEnergy   105652695360                       # Energy for precharge power-down per rank (pJ)
system.mem_ctrls0_0.selfRefreshEnergy     38874766425                       # Energy for self refresh per rank (pJ)
system.mem_ctrls0_0.totalEnergy          941698799145                       # Total energy per rank (pJ)
system.mem_ctrls0_0.averagePower           529.317696                       # Core power per rank (mW)
system.mem_ctrls0_0.totalIdleTime        1567186041412                       # Total Idle time Per DRAM Rank
system.mem_ctrls0_0.memoryStateTime::IDLE   5236968939                       # Time in different power states
system.mem_ctrls0_0.memoryStateTime::REF  58714508000                       # Time in different power states
system.mem_ctrls0_0.memoryStateTime::SREF 128505365366                       # Time in different power states
system.mem_ctrls0_0.memoryStateTime::PRE_PDN 275136071596                       # Time in different power states
system.mem_ctrls0_0.memoryStateTime::ACT 147942972297                       # Time in different power states
system.mem_ctrls0_0.memoryStateTime::ACT_PDN 1163544604450                       # Time in different power states
system.mem_ctrls0_1.actEnergy              8566636260                       # Energy for activate commands per rank (pJ)
system.mem_ctrls0_1.preEnergy              4553263770                       # Energy for precharge commands per rank (pJ)
system.mem_ctrls0_1.readEnergy            15207029040                       # Energy for read commands per rank (pJ)
system.mem_ctrls0_1.writeEnergy            3531580560                       # Energy for write commands per rank (pJ)
system.mem_ctrls0_1.refreshEnergy        138166769520.000031                       # Energy for refresh commands per rank (pJ)
system.mem_ctrls0_1.actBackEnergy         90915682290                       # Energy for active background per rank (pJ)
system.mem_ctrls0_1.preBackEnergy          5023881600                       # Energy for precharge background per rank (pJ)
system.mem_ctrls0_1.actPowerDownEnergy   525759223140                       # Energy for active power-down per rank (pJ)
system.mem_ctrls0_1.prePowerDownEnergy   106531945440                       # Energy for precharge power-down per rank (pJ)
system.mem_ctrls0_1.selfRefreshEnergy     40883189445                       # Energy for self refresh per rank (pJ)
system.mem_ctrls0_1.totalEnergy          939174144855                       # Total energy per rank (pJ)
system.mem_ctrls0_1.averagePower           527.898621                       # Core power per rank (mW)
system.mem_ctrls0_1.totalIdleTime        1566553087780                       # Total Idle time Per DRAM Rank
system.mem_ctrls0_1.memoryStateTime::IDLE   5323787460                       # Time in different power states
system.mem_ctrls0_1.memoryStateTime::REF  58539300000                       # Time in different power states
system.mem_ctrls0_1.memoryStateTime::SREF 136135434629                       # Time in different power states
system.mem_ctrls0_1.memoryStateTime::PRE_PDN 277429542554                       # Time in different power states
system.mem_ctrls0_1.memoryStateTime::ACT 148664315408                       # Time in different power states
system.mem_ctrls0_1.memoryStateTime::ACT_PDN 1152988110597                       # Time in different power states
system.mem_ctrls1.pwrStateResidencyTicks::UNDEFINED 75049234291350                       # Cumulative time (in ticks) in various power states
system.mem_ctrls1.bytes_read::cpu.inst            128                       # Number of bytes read from this memory
system.mem_ctrls1.bytes_read::cpu.data            192                       # Number of bytes read from this memory
system.mem_ctrls1.bytes_read::switch_cpus.inst        43840                       # Number of bytes read from this memory
system.mem_ctrls1.bytes_read::switch_cpus.data    233480640                       # Number of bytes read from this memory
system.mem_ctrls1.bytes_read::switch_cpus_1.inst         3200                       # Number of bytes read from this memory
system.mem_ctrls1.bytes_read::switch_cpus_1.data     40884992                       # Number of bytes read from this memory
system.mem_ctrls1.bytes_read::total         274412992                       # Number of bytes read from this memory
system.mem_ctrls1.bytes_inst_read::cpu.inst          128                       # Number of instructions bytes read from this memory
system.mem_ctrls1.bytes_inst_read::switch_cpus.inst        43840                       # Number of instructions bytes read from this memory
system.mem_ctrls1.bytes_inst_read::switch_cpus_1.inst         3200                       # Number of instructions bytes read from this memory
system.mem_ctrls1.bytes_inst_read::total        47168                       # Number of instructions bytes read from this memory
system.mem_ctrls1.bytes_written::writebacks     87635456                       # Number of bytes written to this memory
system.mem_ctrls1.bytes_written::total       87635456                       # Number of bytes written to this memory
system.mem_ctrls1.num_reads::cpu.inst               2                       # Number of read requests responded to by this memory
system.mem_ctrls1.num_reads::cpu.data               3                       # Number of read requests responded to by this memory
system.mem_ctrls1.num_reads::switch_cpus.inst          685                       # Number of read requests responded to by this memory
system.mem_ctrls1.num_reads::switch_cpus.data      3648135                       # Number of read requests responded to by this memory
system.mem_ctrls1.num_reads::switch_cpus_1.inst           50                       # Number of read requests responded to by this memory
system.mem_ctrls1.num_reads::switch_cpus_1.data       638828                       # Number of read requests responded to by this memory
system.mem_ctrls1.num_reads::total            4287703                       # Number of read requests responded to by this memory
system.mem_ctrls1.num_writes::writebacks      1369304                       # Number of write requests responded to by this memory
system.mem_ctrls1.num_writes::total           1369304                       # Number of write requests responded to by this memory
system.mem_ctrls1.bw_read::cpu.inst                72                       # Total read bandwidth from this memory (bytes/s)
system.mem_ctrls1.bw_read::cpu.data               108                       # Total read bandwidth from this memory (bytes/s)
system.mem_ctrls1.bw_read::switch_cpus.inst        24642                       # Total read bandwidth from this memory (bytes/s)
system.mem_ctrls1.bw_read::switch_cpus.data    131236693                       # Total read bandwidth from this memory (bytes/s)
system.mem_ctrls1.bw_read::switch_cpus_1.inst         1799                       # Total read bandwidth from this memory (bytes/s)
system.mem_ctrls1.bw_read::switch_cpus_1.data     22980968                       # Total read bandwidth from this memory (bytes/s)
system.mem_ctrls1.bw_read::total            154244281                       # Total read bandwidth from this memory (bytes/s)
system.mem_ctrls1.bw_inst_read::cpu.inst           72                       # Instruction read bandwidth from this memory (bytes/s)
system.mem_ctrls1.bw_inst_read::switch_cpus.inst        24642                       # Instruction read bandwidth from this memory (bytes/s)
system.mem_ctrls1.bw_inst_read::switch_cpus_1.inst         1799                       # Instruction read bandwidth from this memory (bytes/s)
system.mem_ctrls1.bw_inst_read::total           26513                       # Instruction read bandwidth from this memory (bytes/s)
system.mem_ctrls1.bw_write::writebacks       49258848                       # Write bandwidth from this memory (bytes/s)
system.mem_ctrls1.bw_write::total            49258848                       # Write bandwidth from this memory (bytes/s)
system.mem_ctrls1.bw_total::writebacks       49258848                       # Total bandwidth to/from this memory (bytes/s)
system.mem_ctrls1.bw_total::cpu.inst               72                       # Total bandwidth to/from this memory (bytes/s)
system.mem_ctrls1.bw_total::cpu.data              108                       # Total bandwidth to/from this memory (bytes/s)
system.mem_ctrls1.bw_total::switch_cpus.inst        24642                       # Total bandwidth to/from this memory (bytes/s)
system.mem_ctrls1.bw_total::switch_cpus.data    131236693                       # Total bandwidth to/from this memory (bytes/s)
system.mem_ctrls1.bw_total::switch_cpus_1.inst         1799                       # Total bandwidth to/from this memory (bytes/s)
system.mem_ctrls1.bw_total::switch_cpus_1.data     22980968                       # Total bandwidth to/from this memory (bytes/s)
system.mem_ctrls1.bw_total::total           203503130                       # Total bandwidth to/from this memory (bytes/s)
system.mem_ctrls1.readReqs                    4287703                       # Number of read requests accepted
system.mem_ctrls1.writeReqs                   1369304                       # Number of write requests accepted
system.mem_ctrls1.readBursts                  4287703                       # Number of DRAM read bursts, including those serviced by the write queue
system.mem_ctrls1.writeBursts                 1369304                       # Number of DRAM write bursts, including those merged in the write queue
system.mem_ctrls1.bytesReadDRAM             274380928                       # Total number of bytes read from DRAM
system.mem_ctrls1.bytesReadWrQ                  32064                       # Total number of bytes read from write queue
system.mem_ctrls1.bytesWritten               87633408                       # Total number of bytes written to DRAM
system.mem_ctrls1.bytesReadSys              274412992                       # Total read bytes from the system interface side
system.mem_ctrls1.bytesWrittenSys            87635456                       # Total written bytes from the system interface side
system.mem_ctrls1.servicedByWrQ                   501                       # Number of DRAM read bursts serviced by the write queue
system.mem_ctrls1.mergedWrBursts                    0                       # Number of DRAM write bursts merged with an existing one
system.mem_ctrls1.neitherReadNorWriteReqs            0                       # Number of requests that are neither read nor write
system.mem_ctrls1.perBankRdBursts::0           273392                       # Per bank write bursts
system.mem_ctrls1.perBankRdBursts::1           270686                       # Per bank write bursts
system.mem_ctrls1.perBankRdBursts::2           267652                       # Per bank write bursts
system.mem_ctrls1.perBankRdBursts::3           268145                       # Per bank write bursts
system.mem_ctrls1.perBankRdBursts::4           267602                       # Per bank write bursts
system.mem_ctrls1.perBankRdBursts::5           269387                       # Per bank write bursts
system.mem_ctrls1.perBankRdBursts::6           269254                       # Per bank write bursts
system.mem_ctrls1.perBankRdBursts::7           270657                       # Per bank write bursts
system.mem_ctrls1.perBankRdBursts::8           272113                       # Per bank write bursts
system.mem_ctrls1.perBankRdBursts::9           269906                       # Per bank write bursts
system.mem_ctrls1.perBankRdBursts::10          264266                       # Per bank write bursts
system.mem_ctrls1.perBankRdBursts::11          261158                       # Per bank write bursts
system.mem_ctrls1.perBankRdBursts::12          260130                       # Per bank write bursts
system.mem_ctrls1.perBankRdBursts::13          264255                       # Per bank write bursts
system.mem_ctrls1.perBankRdBursts::14          269077                       # Per bank write bursts
system.mem_ctrls1.perBankRdBursts::15          269522                       # Per bank write bursts
system.mem_ctrls1.perBankWrBursts::0            87980                       # Per bank write bursts
system.mem_ctrls1.perBankWrBursts::1            86643                       # Per bank write bursts
system.mem_ctrls1.perBankWrBursts::2            85990                       # Per bank write bursts
system.mem_ctrls1.perBankWrBursts::3            86999                       # Per bank write bursts
system.mem_ctrls1.perBankWrBursts::4            87614                       # Per bank write bursts
system.mem_ctrls1.perBankWrBursts::5            87705                       # Per bank write bursts
system.mem_ctrls1.perBankWrBursts::6            85162                       # Per bank write bursts
system.mem_ctrls1.perBankWrBursts::7            84572                       # Per bank write bursts
system.mem_ctrls1.perBankWrBursts::8            84965                       # Per bank write bursts
system.mem_ctrls1.perBankWrBursts::9            85444                       # Per bank write bursts
system.mem_ctrls1.perBankWrBursts::10           84602                       # Per bank write bursts
system.mem_ctrls1.perBankWrBursts::11           83446                       # Per bank write bursts
system.mem_ctrls1.perBankWrBursts::12           82358                       # Per bank write bursts
system.mem_ctrls1.perBankWrBursts::13           83380                       # Per bank write bursts
system.mem_ctrls1.perBankWrBursts::14           86036                       # Per bank write bursts
system.mem_ctrls1.perBankWrBursts::15           86376                       # Per bank write bursts
system.mem_ctrls1.numRdRetry                        0                       # Number of times read queue was full causing retry
system.mem_ctrls1.numWrRetry                        0                       # Number of times write queue was full causing retry
system.mem_ctrls1.totGap                 1779080362110                       # Total gap between requests
system.mem_ctrls1.readPktSize::0                    0                       # Read request sizes (log2)
system.mem_ctrls1.readPktSize::1                    0                       # Read request sizes (log2)
system.mem_ctrls1.readPktSize::2                    0                       # Read request sizes (log2)
system.mem_ctrls1.readPktSize::3                    0                       # Read request sizes (log2)
system.mem_ctrls1.readPktSize::4                    0                       # Read request sizes (log2)
system.mem_ctrls1.readPktSize::5                    0                       # Read request sizes (log2)
system.mem_ctrls1.readPktSize::6              4287703                       # Read request sizes (log2)
system.mem_ctrls1.writePktSize::0                   0                       # Write request sizes (log2)
system.mem_ctrls1.writePktSize::1                   0                       # Write request sizes (log2)
system.mem_ctrls1.writePktSize::2                   0                       # Write request sizes (log2)
system.mem_ctrls1.writePktSize::3                   0                       # Write request sizes (log2)
system.mem_ctrls1.writePktSize::4                   0                       # Write request sizes (log2)
system.mem_ctrls1.writePktSize::5                   0                       # Write request sizes (log2)
system.mem_ctrls1.writePktSize::6             1369304                       # Write request sizes (log2)
system.mem_ctrls1.rdQLenPdf::0                4091339                       # What read queue length does an incoming req see
system.mem_ctrls1.rdQLenPdf::1                 156540                       # What read queue length does an incoming req see
system.mem_ctrls1.rdQLenPdf::2                  36546                       # What read queue length does an incoming req see
system.mem_ctrls1.rdQLenPdf::3                   2777                       # What read queue length does an incoming req see
system.mem_ctrls1.rdQLenPdf::4                      0                       # What read queue length does an incoming req see
system.mem_ctrls1.rdQLenPdf::5                      0                       # What read queue length does an incoming req see
system.mem_ctrls1.rdQLenPdf::6                      0                       # What read queue length does an incoming req see
system.mem_ctrls1.rdQLenPdf::7                      0                       # What read queue length does an incoming req see
system.mem_ctrls1.rdQLenPdf::8                      0                       # What read queue length does an incoming req see
system.mem_ctrls1.rdQLenPdf::9                      0                       # What read queue length does an incoming req see
system.mem_ctrls1.rdQLenPdf::10                     0                       # What read queue length does an incoming req see
system.mem_ctrls1.rdQLenPdf::11                     0                       # What read queue length does an incoming req see
system.mem_ctrls1.rdQLenPdf::12                     0                       # What read queue length does an incoming req see
system.mem_ctrls1.rdQLenPdf::13                     0                       # What read queue length does an incoming req see
system.mem_ctrls1.rdQLenPdf::14                     0                       # What read queue length does an incoming req see
system.mem_ctrls1.rdQLenPdf::15                     0                       # What read queue length does an incoming req see
system.mem_ctrls1.rdQLenPdf::16                     0                       # What read queue length does an incoming req see
system.mem_ctrls1.rdQLenPdf::17                     0                       # What read queue length does an incoming req see
system.mem_ctrls1.rdQLenPdf::18                     0                       # What read queue length does an incoming req see
system.mem_ctrls1.rdQLenPdf::19                     0                       # What read queue length does an incoming req see
system.mem_ctrls1.rdQLenPdf::20                     0                       # What read queue length does an incoming req see
system.mem_ctrls1.rdQLenPdf::21                     0                       # What read queue length does an incoming req see
system.mem_ctrls1.rdQLenPdf::22                     0                       # What read queue length does an incoming req see
system.mem_ctrls1.rdQLenPdf::23                     0                       # What read queue length does an incoming req see
system.mem_ctrls1.rdQLenPdf::24                     0                       # What read queue length does an incoming req see
system.mem_ctrls1.rdQLenPdf::25                     0                       # What read queue length does an incoming req see
system.mem_ctrls1.rdQLenPdf::26                     0                       # What read queue length does an incoming req see
system.mem_ctrls1.rdQLenPdf::27                     0                       # What read queue length does an incoming req see
system.mem_ctrls1.rdQLenPdf::28                     0                       # What read queue length does an incoming req see
system.mem_ctrls1.rdQLenPdf::29                     0                       # What read queue length does an incoming req see
system.mem_ctrls1.rdQLenPdf::30                     0                       # What read queue length does an incoming req see
system.mem_ctrls1.rdQLenPdf::31                     0                       # What read queue length does an incoming req see
system.mem_ctrls1.wrQLenPdf::0                      2                       # What write queue length does an incoming req see
system.mem_ctrls1.wrQLenPdf::1                      2                       # What write queue length does an incoming req see
system.mem_ctrls1.wrQLenPdf::2                      2                       # What write queue length does an incoming req see
system.mem_ctrls1.wrQLenPdf::3                      2                       # What write queue length does an incoming req see
system.mem_ctrls1.wrQLenPdf::4                      2                       # What write queue length does an incoming req see
system.mem_ctrls1.wrQLenPdf::5                      2                       # What write queue length does an incoming req see
system.mem_ctrls1.wrQLenPdf::6                      2                       # What write queue length does an incoming req see
system.mem_ctrls1.wrQLenPdf::7                      2                       # What write queue length does an incoming req see
system.mem_ctrls1.wrQLenPdf::8                      2                       # What write queue length does an incoming req see
system.mem_ctrls1.wrQLenPdf::9                      2                       # What write queue length does an incoming req see
system.mem_ctrls1.wrQLenPdf::10                     2                       # What write queue length does an incoming req see
system.mem_ctrls1.wrQLenPdf::11                     2                       # What write queue length does an incoming req see
system.mem_ctrls1.wrQLenPdf::12                     2                       # What write queue length does an incoming req see
system.mem_ctrls1.wrQLenPdf::13                     2                       # What write queue length does an incoming req see
system.mem_ctrls1.wrQLenPdf::14                     2                       # What write queue length does an incoming req see
system.mem_ctrls1.wrQLenPdf::15                 41619                       # What write queue length does an incoming req see
system.mem_ctrls1.wrQLenPdf::16                 43529                       # What write queue length does an incoming req see
system.mem_ctrls1.wrQLenPdf::17                 75857                       # What write queue length does an incoming req see
system.mem_ctrls1.wrQLenPdf::18                 79714                       # What write queue length does an incoming req see
system.mem_ctrls1.wrQLenPdf::19                 80487                       # What write queue length does an incoming req see
system.mem_ctrls1.wrQLenPdf::20                 80551                       # What write queue length does an incoming req see
system.mem_ctrls1.wrQLenPdf::21                 80559                       # What write queue length does an incoming req see
system.mem_ctrls1.wrQLenPdf::22                 80575                       # What write queue length does an incoming req see
system.mem_ctrls1.wrQLenPdf::23                 80607                       # What write queue length does an incoming req see
system.mem_ctrls1.wrQLenPdf::24                 80603                       # What write queue length does an incoming req see
system.mem_ctrls1.wrQLenPdf::25                 80638                       # What write queue length does an incoming req see
system.mem_ctrls1.wrQLenPdf::26                 80650                       # What write queue length does an incoming req see
system.mem_ctrls1.wrQLenPdf::27                 80667                       # What write queue length does an incoming req see
system.mem_ctrls1.wrQLenPdf::28                 80965                       # What write queue length does an incoming req see
system.mem_ctrls1.wrQLenPdf::29                 81200                       # What write queue length does an incoming req see
system.mem_ctrls1.wrQLenPdf::30                 80648                       # What write queue length does an incoming req see
system.mem_ctrls1.wrQLenPdf::31                 80211                       # What write queue length does an incoming req see
system.mem_ctrls1.wrQLenPdf::32                 80105                       # What write queue length does an incoming req see
system.mem_ctrls1.wrQLenPdf::33                    79                       # What write queue length does an incoming req see
system.mem_ctrls1.wrQLenPdf::34                    10                       # What write queue length does an incoming req see
system.mem_ctrls1.wrQLenPdf::35                     0                       # What write queue length does an incoming req see
system.mem_ctrls1.wrQLenPdf::36                     0                       # What write queue length does an incoming req see
system.mem_ctrls1.wrQLenPdf::37                     0                       # What write queue length does an incoming req see
system.mem_ctrls1.wrQLenPdf::38                     0                       # What write queue length does an incoming req see
system.mem_ctrls1.wrQLenPdf::39                     0                       # What write queue length does an incoming req see
system.mem_ctrls1.wrQLenPdf::40                     0                       # What write queue length does an incoming req see
system.mem_ctrls1.wrQLenPdf::41                     0                       # What write queue length does an incoming req see
system.mem_ctrls1.wrQLenPdf::42                     0                       # What write queue length does an incoming req see
system.mem_ctrls1.wrQLenPdf::43                     0                       # What write queue length does an incoming req see
system.mem_ctrls1.wrQLenPdf::44                     0                       # What write queue length does an incoming req see
system.mem_ctrls1.wrQLenPdf::45                     0                       # What write queue length does an incoming req see
system.mem_ctrls1.wrQLenPdf::46                     0                       # What write queue length does an incoming req see
system.mem_ctrls1.wrQLenPdf::47                     0                       # What write queue length does an incoming req see
system.mem_ctrls1.wrQLenPdf::48                     0                       # What write queue length does an incoming req see
system.mem_ctrls1.wrQLenPdf::49                     0                       # What write queue length does an incoming req see
system.mem_ctrls1.wrQLenPdf::50                     0                       # What write queue length does an incoming req see
system.mem_ctrls1.wrQLenPdf::51                     0                       # What write queue length does an incoming req see
system.mem_ctrls1.wrQLenPdf::52                     0                       # What write queue length does an incoming req see
system.mem_ctrls1.wrQLenPdf::53                     0                       # What write queue length does an incoming req see
system.mem_ctrls1.wrQLenPdf::54                     0                       # What write queue length does an incoming req see
system.mem_ctrls1.wrQLenPdf::55                     0                       # What write queue length does an incoming req see
system.mem_ctrls1.wrQLenPdf::56                     0                       # What write queue length does an incoming req see
system.mem_ctrls1.wrQLenPdf::57                     0                       # What write queue length does an incoming req see
system.mem_ctrls1.wrQLenPdf::58                     0                       # What write queue length does an incoming req see
system.mem_ctrls1.wrQLenPdf::59                     0                       # What write queue length does an incoming req see
system.mem_ctrls1.wrQLenPdf::60                     0                       # What write queue length does an incoming req see
system.mem_ctrls1.wrQLenPdf::61                     0                       # What write queue length does an incoming req see
system.mem_ctrls1.wrQLenPdf::62                     0                       # What write queue length does an incoming req see
system.mem_ctrls1.wrQLenPdf::63                     0                       # What write queue length does an incoming req see
system.mem_ctrls1.bytesPerActivate::samples      2417661                       # Bytes accessed per row activation
system.mem_ctrls1.bytesPerActivate::mean   149.736500                       # Bytes accessed per row activation
system.mem_ctrls1.bytesPerActivate::gmean   110.744109                       # Bytes accessed per row activation
system.mem_ctrls1.bytesPerActivate::stdev   155.182320                       # Bytes accessed per row activation
system.mem_ctrls1.bytesPerActivate::0-127      1247592     51.60%     51.60% # Bytes accessed per row activation
system.mem_ctrls1.bytesPerActivate::128-255       803567     33.24%     84.84% # Bytes accessed per row activation
system.mem_ctrls1.bytesPerActivate::256-383       145983      6.04%     90.88% # Bytes accessed per row activation
system.mem_ctrls1.bytesPerActivate::384-511        74333      3.07%     93.95% # Bytes accessed per row activation
system.mem_ctrls1.bytesPerActivate::512-639        69552      2.88%     96.83% # Bytes accessed per row activation
system.mem_ctrls1.bytesPerActivate::640-767        32361      1.34%     98.17% # Bytes accessed per row activation
system.mem_ctrls1.bytesPerActivate::768-895        26269      1.09%     99.26% # Bytes accessed per row activation
system.mem_ctrls1.bytesPerActivate::896-1023         9213      0.38%     99.64% # Bytes accessed per row activation
system.mem_ctrls1.bytesPerActivate::1024-1151         8791      0.36%    100.00% # Bytes accessed per row activation
system.mem_ctrls1.bytesPerActivate::total      2417661                       # Bytes accessed per row activation
system.mem_ctrls1.rdPerTurnAround::samples        80032                       # Reads before turning the bus around for writes
system.mem_ctrls1.rdPerTurnAround::mean     53.567735                       # Reads before turning the bus around for writes
system.mem_ctrls1.rdPerTurnAround::gmean    47.890578                       # Reads before turning the bus around for writes
system.mem_ctrls1.rdPerTurnAround::stdev   114.811353                       # Reads before turning the bus around for writes
system.mem_ctrls1.rdPerTurnAround::0-1023        80031    100.00%    100.00% # Reads before turning the bus around for writes
system.mem_ctrls1.rdPerTurnAround::30720-31743            1      0.00%    100.00% # Reads before turning the bus around for writes
system.mem_ctrls1.rdPerTurnAround::total        80032                       # Reads before turning the bus around for writes
system.mem_ctrls1.wrPerTurnAround::samples        80032                       # Writes before turning the bus around for reads
system.mem_ctrls1.wrPerTurnAround::mean     17.109056                       # Writes before turning the bus around for reads
system.mem_ctrls1.wrPerTurnAround::gmean    17.076511                       # Writes before turning the bus around for reads
system.mem_ctrls1.wrPerTurnAround::stdev     1.055921                       # Writes before turning the bus around for reads
system.mem_ctrls1.wrPerTurnAround::16           36723     45.89%     45.89% # Writes before turning the bus around for reads
system.mem_ctrls1.wrPerTurnAround::17            1468      1.83%     47.72% # Writes before turning the bus around for reads
system.mem_ctrls1.wrPerTurnAround::18           38539     48.15%     95.87% # Writes before turning the bus around for reads
system.mem_ctrls1.wrPerTurnAround::19            3034      3.79%     99.67% # Writes before turning the bus around for reads
system.mem_ctrls1.wrPerTurnAround::20             239      0.30%     99.96% # Writes before turning the bus around for reads
system.mem_ctrls1.wrPerTurnAround::21              26      0.03%    100.00% # Writes before turning the bus around for reads
system.mem_ctrls1.wrPerTurnAround::22               2      0.00%    100.00% # Writes before turning the bus around for reads
system.mem_ctrls1.wrPerTurnAround::30               1      0.00%    100.00% # Writes before turning the bus around for reads
system.mem_ctrls1.wrPerTurnAround::total        80032                       # Writes before turning the bus around for reads
system.mem_ctrls1.totQLat                 93201739020                       # Total ticks spent queuing
system.mem_ctrls1.totMemAccLat           173586776520                       # Total ticks spent from burst creation until serviced by the DRAM
system.mem_ctrls1.totBusLat               21436010000                       # Total ticks spent in databus transfers
system.mem_ctrls1.avgQLat                    21739.53                       # Average queueing delay per DRAM burst
system.mem_ctrls1.avgBusLat                   5000.00                       # Average bus latency per DRAM burst
system.mem_ctrls1.avgMemAccLat               40489.53                       # Average memory access latency per DRAM burst
system.mem_ctrls1.avgRdBW                      154.23                       # Average DRAM read bandwidth in MiByte/s
system.mem_ctrls1.avgWrBW                       49.26                       # Average achieved write bandwidth in MiByte/s
system.mem_ctrls1.avgRdBWSys                   154.24                       # Average system read bandwidth in MiByte/s
system.mem_ctrls1.avgWrBWSys                    49.26                       # Average system write bandwidth in MiByte/s
system.mem_ctrls1.peakBW                     12800.00                       # Theoretical peak bandwidth in MiByte/s
system.mem_ctrls1.busUtil                        1.59                       # Data bus utilization in percentage
system.mem_ctrls1.busUtilRead                    1.20                       # Data bus utilization in percentage for reads
system.mem_ctrls1.busUtilWrite                   0.38                       # Data bus utilization in percentage for writes
system.mem_ctrls1.avgRdQLen                      1.02                       # Average read queue length when enqueuing
system.mem_ctrls1.avgWrQLen                     24.55                       # Average write queue length when enqueuing
system.mem_ctrls1.readRowHits                 2696092                       # Number of row buffer hits during reads
system.mem_ctrls1.writeRowHits                 542715                       # Number of row buffer hits during writes
system.mem_ctrls1.readRowHitRate                62.89                       # Row buffer hit rate for reads
system.mem_ctrls1.writeRowHitRate               39.63                       # Row buffer hit rate for writes
system.mem_ctrls1.avgGap                    314491.45                       # Average gap between requests
system.mem_ctrls1.pageHitRate                   57.26                       # Row buffer hit rate, read and write combined
system.mem_ctrls1_0.actEnergy              8697084060                       # Energy for activate commands per rank (pJ)
system.mem_ctrls1_0.preEnergy              4622587035                       # Energy for precharge commands per rank (pJ)
system.mem_ctrls1_0.readEnergy            15399373500                       # Energy for read commands per rank (pJ)
system.mem_ctrls1_0.writeEnergy            3615711300                       # Energy for write commands per rank (pJ)
system.mem_ctrls1_0.refreshEnergy        138561368400.000031                       # Energy for refresh commands per rank (pJ)
system.mem_ctrls1_0.actBackEnergy         90560278170                       # Energy for active background per rank (pJ)
system.mem_ctrls1_0.preBackEnergy          4997374080                       # Energy for precharge background per rank (pJ)
system.mem_ctrls1_0.actPowerDownEnergy   531084085620                       # Energy for active power-down per rank (pJ)
system.mem_ctrls1_0.prePowerDownEnergy   105482701440                       # Energy for precharge power-down per rank (pJ)
system.mem_ctrls1_0.selfRefreshEnergy     38704229220                       # Energy for self refresh per rank (pJ)
system.mem_ctrls1_0.totalEnergy          941761758285                       # Total energy per rank (pJ)
system.mem_ctrls1_0.averagePower           529.353083                       # Core power per rank (mW)
system.mem_ctrls1_0.totalIdleTime        1567387604707                       # Total Idle time Per DRAM Rank
system.mem_ctrls1_0.memoryStateTime::IDLE   5221151902                       # Time in different power states
system.mem_ctrls1_0.memoryStateTime::REF  58703310000                       # Time in different power states
system.mem_ctrls1_0.memoryStateTime::SREF 128034554971                       # Time in different power states
system.mem_ctrls1_0.memoryStateTime::PRE_PDN 274696082850                       # Time in different power states
system.mem_ctrls1_0.memoryStateTime::ACT 147768335236                       # Time in different power states
system.mem_ctrls1_0.memoryStateTime::ACT_PDN 1164657055689                       # Time in different power states
system.mem_ctrls1_1.actEnergy              8565058320                       # Energy for activate commands per rank (pJ)
system.mem_ctrls1_1.preEnergy              4552436460                       # Energy for precharge commands per rank (pJ)
system.mem_ctrls1_1.readEnergy            15211248780                       # Energy for read commands per rank (pJ)
system.mem_ctrls1_1.writeEnergy            3531888540                       # Energy for write commands per rank (pJ)
system.mem_ctrls1_1.refreshEnergy        138107764080.000031                       # Energy for refresh commands per rank (pJ)
system.mem_ctrls1_1.actBackEnergy         90974306220                       # Energy for active background per rank (pJ)
system.mem_ctrls1_1.preBackEnergy          5007708000                       # Energy for precharge background per rank (pJ)
system.mem_ctrls1_1.actPowerDownEnergy   525857484300                       # Energy for active power-down per rank (pJ)
system.mem_ctrls1_1.prePowerDownEnergy   106292602080                       # Energy for precharge power-down per rank (pJ)
system.mem_ctrls1_1.selfRefreshEnergy     40926867030                       # Energy for self refresh per rank (pJ)
system.mem_ctrls1_1.totalEnergy          939060937230                       # Total energy per rank (pJ)
system.mem_ctrls1_1.averagePower           527.834941                       # Core power per rank (mW)
system.mem_ctrls1_1.totalIdleTime        1566456316918                       # Total Idle time Per DRAM Rank
system.mem_ctrls1_1.memoryStateTime::IDLE   5285621063                       # Time in different power states
system.mem_ctrls1_1.memoryStateTime::REF  58513534128                       # Time in different power states
system.mem_ctrls1_1.memoryStateTime::SREF 136460063520                       # Time in different power states
system.mem_ctrls1_1.memoryStateTime::PRE_PDN 276802815567                       # Time in different power states
system.mem_ctrls1_1.memoryStateTime::ACT 148825018539                       # Time in different power states
system.mem_ctrls1_1.memoryStateTime::ACT_PDN 1153193437831                       # Time in different power states
system.pwrStateResidencyTicks::UNDEFINED 75049234291350                       # Cumulative time (in ticks) in various power states
system.cpu.branchPred.lookups                       2                       # Number of BP lookups
system.cpu.branchPred.condPredicted                 2                       # Number of conditional branches predicted
system.cpu.branchPred.condIncorrect                 1                       # Number of conditional branches incorrect
system.cpu.branchPred.BTBLookups                    0                       # Number of BTB lookups
system.cpu.branchPred.BTBHits                       0                       # Number of BTB hits
system.cpu.branchPred.BTBCorrect                    0                       # Number of correct BTB predictions (this stat may not work properly.
system.cpu.branchPred.BTBHitPct                   nan                       # BTB Hit Percentage
system.cpu.branchPred.usedRAS                       0                       # Number of times the RAS was used to get a target.
system.cpu.branchPred.RASInCorrect                  0                       # Number of incorrect RAS predictions.
system.cpu.branchPred.indirectLookups               0                       # Number of indirect predictor lookups.
system.cpu.branchPred.indirectHits                  0                       # Number of indirect target hits.
system.cpu.branchPred.indirectMisses                0                       # Number of indirect misses.
system.cpu.branchPredindirectMispredicted            0                       # Number of mispredicted indirect branches.
system.cpu_voltage_domain.voltage                   1                       # Voltage in Volts
system.cpu_clk_domain.clock                       333                       # Clock period in ticks
system.cpu.dtb.fetch_hits                           0                       # ITB hits
system.cpu.dtb.fetch_misses                         0                       # ITB misses
system.cpu.dtb.fetch_acv                            0                       # ITB acv
system.cpu.dtb.fetch_accesses                       0                       # ITB accesses
system.cpu.dtb.read_hits                           23                       # DTB read hits
system.cpu.dtb.read_misses                          0                       # DTB read misses
system.cpu.dtb.read_acv                             0                       # DTB read access violations
system.cpu.dtb.read_accesses                       23                       # DTB read accesses
system.cpu.dtb.write_hits                           3                       # DTB write hits
system.cpu.dtb.write_misses                         0                       # DTB write misses
system.cpu.dtb.write_acv                            0                       # DTB write access violations
system.cpu.dtb.write_accesses                       3                       # DTB write accesses
system.cpu.dtb.data_hits                           26                       # DTB hits
system.cpu.dtb.data_misses                          0                       # DTB misses
system.cpu.dtb.data_acv                             0                       # DTB access violations
system.cpu.dtb.data_accesses                       26                       # DTB accesses
system.cpu.itb.fetch_hits                           7                       # ITB hits
system.cpu.itb.fetch_misses                         0                       # ITB misses
system.cpu.itb.fetch_acv                            0                       # ITB acv
system.cpu.itb.fetch_accesses                       7                       # ITB accesses
system.cpu.itb.read_hits                            0                       # DTB read hits
system.cpu.itb.read_misses                          0                       # DTB read misses
system.cpu.itb.read_acv                             0                       # DTB read access violations
system.cpu.itb.read_accesses                        0                       # DTB read accesses
system.cpu.itb.write_hits                           0                       # DTB write hits
system.cpu.itb.write_misses                         0                       # DTB write misses
system.cpu.itb.write_acv                            0                       # DTB write access violations
system.cpu.itb.write_accesses                       0                       # DTB write accesses
system.cpu.itb.data_hits                            0                       # DTB hits
system.cpu.itb.data_misses                          0                       # DTB misses
system.cpu.itb.data_acv                             0                       # DTB access violations
system.cpu.itb.data_accesses                        0                       # DTB accesses
system.cpu.workload.num_syscalls                    0                       # Number of system calls
system.cpu.pwrStateResidencyTicks::ON    1779080490648                       # Cumulative time (in ticks) in various power states
system.cpu.numCycles                              871                       # number of cpu cycles simulated
system.cpu.numWorkItemsStarted                      0                       # number of work items this cpu started
system.cpu.numWorkItemsCompleted                    0                       # number of work items this cpu completed
system.cpu.fetch.icacheStallCycles                 62                       # Number of cycles fetch is stalled on an Icache miss
system.cpu.fetch.Insts                             51                       # Number of instructions fetch has processed
system.cpu.fetch.Branches                           2                       # Number of branches that fetch encountered
system.cpu.fetch.Cycles                             7                       # Number of cycles fetch has run and was not squashing or blocked
system.cpu.fetch.SquashCycles                       5                       # Number of cycles fetch has spent squashing
system.cpu.fetch.PendingDrainCycles                10                       # Number of cycles fetch has spent waiting on pipes to drain
system.cpu.fetch.CacheLines                         7                       # Number of cache lines fetched
system.cpu.fetch.IcacheSquashes                     3                       # Number of outstanding Icache misses that were squashed
system.cpu.fetch.rateDist::samples                 81                       # Number of instructions fetched each cycle (Total)
system.cpu.fetch.rateDist::mean              0.629630                       # Number of instructions fetched each cycle (Total)
system.cpu.fetch.rateDist::stdev             2.100265                       # Number of instructions fetched each cycle (Total)
system.cpu.fetch.rateDist::underflows               0      0.00%      0.00% # Number of instructions fetched each cycle (Total)
system.cpu.fetch.rateDist::0                       74     91.36%     91.36% # Number of instructions fetched each cycle (Total)
system.cpu.fetch.rateDist::1                        0      0.00%     91.36% # Number of instructions fetched each cycle (Total)
system.cpu.fetch.rateDist::2                        0      0.00%     91.36% # Number of instructions fetched each cycle (Total)
system.cpu.fetch.rateDist::3                        0      0.00%     91.36% # Number of instructions fetched each cycle (Total)
system.cpu.fetch.rateDist::4                        1      1.23%     92.59% # Number of instructions fetched each cycle (Total)
[...]
system.switch_cpus_1.iq.int_inst_queue_writes    142178574                       # Number of integer instruction queue writes
system.switch_cpus_1.iq.int_inst_queue_wakeup_accesses    140179896                       # Number of integer instruction queue wakeup accesses
system.switch_cpus_1.iq.fp_inst_queue_reads    152789897                       # Number of floating instruction queue reads
system.switch_cpus_1.iq.fp_inst_queue_writes     62653853                       # Number of floating instruction queue writes
system.switch_cpus_1.iq.fp_inst_queue_wakeup_accesses     61348945                       # Number of floating instruction queue wakeup accesses
system.switch_cpus_1.iq.int_alu_accesses    154300049                       # Number of integer alu accesses
system.switch_cpus_1.iq.fp_alu_accesses      82280674                       # Number of floating point alu accesses
system.switch_cpus_1.iew.lsq.thread0.forwLoads      1442377                       # Number of loads that had data forwarded from stores
system.switch_cpus_1.iew.lsq.thread0.invAddrLoads            0                       # Number of loads ignored due to an invalid address
system.switch_cpus_1.iew.lsq.thread0.squashedLoads       802956                       # Number of loads squashed
system.switch_cpus_1.iew.lsq.thread0.ignoredResponses            0                       # Number of memory responses ignored because the instruction is squashed
system.switch_cpus_1.iew.lsq.thread0.memOrderViolation          348                       # Number of memory ordering violations
system.switch_cpus_1.iew.lsq.thread0.squashedStores       151703                       # Number of stores squashed
system.switch_cpus_1.iew.lsq.thread0.invAddrSwpfs            0                       # Number of software prefetches ignored due to an invalid address
system.switch_cpus_1.iew.lsq.thread0.blockedLoads            0                       # Number of blocked loads due to partial load-store forwarding
system.switch_cpus_1.iew.lsq.thread0.rescheduledLoads            0                       # Number of loads that were rescheduled
system.switch_cpus_1.iew.lsq.thread0.cacheBlocked     13072054                       # Number of times an access to memory failed due to the cache being blocked
system.switch_cpus_1.iew.iewIdleCycles              0                       # Number of cycles IEW is idle
system.switch_cpus_1.iew.iewSquashCycles        63501                       # Number of cycles IEW is squashing
system.switch_cpus_1.iew.iewBlockCycles      16203307                       # Number of cycles IEW is blocking
system.switch_cpus_1.iew.iewUnblockCycles     30721897                       # Number of cycles IEW is unblocking
system.switch_cpus_1.iew.iewDispatchedInsts    202483970                       # Number of instructions dispatched to IQ
system.switch_cpus_1.iew.iewDispSquashedInsts        61078                       # Number of squashed instructions skipped by dispatch
system.switch_cpus_1.iew.iewDispLoadInsts     68397355                       # Number of dispatched load instructions
system.switch_cpus_1.iew.iewDispStoreInsts     10464184                       # Number of dispatched store instructions
system.switch_cpus_1.iew.iewDispNonSpecInsts           86                       # Number of dispatched non-speculative instructions
system.switch_cpus_1.iew.iewIQFullEvents       252162                       # Number of times the IQ has become full, causing a stall
system.switch_cpus_1.iew.iewLSQFullEvents     30207998                       # Number of times the LSQ has become full, causing a stall
system.switch_cpus_1.iew.memOrderViolationEvents          348                       # Number of memory order violations
system.switch_cpus_1.iew.predictedTakenIncorrect        47604                       # Number of branches that were predicted taken incorrectly
system.switch_cpus_1.iew.predictedNotTakenIncorrect          437                       # Number of branches that were predicted not taken incorrectly
system.switch_cpus_1.iew.branchMispredicts        48041                       # Number of branch mispredicts detected at execute
system.switch_cpus_1.iew.iewExecutedInsts    214455366                       # Number of executed instructions
system.switch_cpus_1.iew.iewExecLoadInsts     80953811                       # Number of load instructions executed
system.switch_cpus_1.iew.iewExecSquashedInsts       115308                       # Number of squashed instructions skipped in execute
system.switch_cpus_1.iew.exec_swp                   0                       # number of swp insts executed
system.switch_cpus_1.iew.exec_nop               67887                       # number of nop insts executed
system.switch_cpus_1.iew.exec_refs           91308248                       # number of memory reference insts executed
system.switch_cpus_1.iew.exec_branches        5549806                       # Number of branches executed
system.switch_cpus_1.iew.exec_stores         10354437                       # Number of stores executed
system.switch_cpus_1.iew.exec_rate           0.909078                       # Inst execution rate
system.switch_cpus_1.iew.wb_sent            201663039                       # cumulative count of insts sent to commit
system.switch_cpus_1.iew.wb_count           201528841                       # cumulative count of insts written-back
system.switch_cpus_1.iew.wb_producers       139697395                       # num instructions producing a value
system.switch_cpus_1.iew.wb_consumers       153360916                       # num instructions consuming a value
system.switch_cpus_1.iew.wb_rate             0.854283                       # insts written-back per cycle
system.switch_cpus_1.iew.wb_fanout           0.910906                       # average fanout of values written-back
system.switch_cpus_1.commit.commitSquashedInsts      2359854                       # The number of squashed insts skipped by commit
system.switch_cpus_1.commit.commitNonSpecStalls          144                       # The number of times commit has been forced to stall to communicate backwards
system.switch_cpus_1.commit.branchMispredicts        47874                       # The number of times a branch was mispredicted
system.switch_cpus_1.commit.committed_per_cycle::samples    235574582                       # Number of insts commited each cycle
system.switch_cpus_1.commit.committed_per_cycle::mean     0.849237                       # Number of insts commited each cycle
system.switch_cpus_1.commit.committed_per_cycle::stdev     2.305077                       # Number of insts commited each cycle
system.switch_cpus_1.commit.committed_per_cycle::underflows            0      0.00%      0.00% # Number of insts commited each cycle
system.switch_cpus_1.commit.committed_per_cycle::0    199755634     84.80%     84.80% # Number of insts commited each cycle
system.switch_cpus_1.commit.committed_per_cycle::1      7422412      3.15%     87.95% # Number of insts commited each cycle
system.switch_cpus_1.commit.committed_per_cycle::2      1503867      0.64%     88.58% # Number of insts commited each cycle
system.switch_cpus_1.commit.committed_per_cycle::3      1583087      0.67%     89.26% # Number of insts commited each cycle
system.switch_cpus_1.commit.committed_per_cycle::4      2209088      0.94%     90.19% # Number of insts commited each cycle
system.switch_cpus_1.commit.committed_per_cycle::5      1479607      0.63%     90.82% # Number of insts commited each cycle
system.switch_cpus_1.commit.committed_per_cycle::6      1335011      0.57%     91.39% # Number of insts commited each cycle
system.switch_cpus_1.commit.committed_per_cycle::7      1652197      0.70%     92.09% # Number of insts commited each cycle
system.switch_cpus_1.commit.committed_per_cycle::8     18633679      7.91%    100.00% # Number of insts commited each cycle
system.switch_cpus_1.commit.committed_per_cycle::overflows            0      0.00%    100.00% # Number of insts commited each cycle
system.switch_cpus_1.commit.committed_per_cycle::min_value            0                       # Number of insts commited each cycle
system.switch_cpus_1.commit.committed_per_cycle::max_value            8                       # Number of insts commited each cycle
system.switch_cpus_1.commit.committed_per_cycle::total    235574582                       # Number of insts commited each cycle
system.switch_cpus_1.commit.committedInsts    200058671                       # Number of instructions committed
system.switch_cpus_1.commit.committedOps    200058671                       # Number of ops (including micro ops) committed
system.switch_cpus_1.commit.swp_count               0                       # Number of s/w prefetches committed
system.switch_cpus_1.commit.refs             77906848                       # Number of memory references committed
system.switch_cpus_1.commit.loads            67594371                       # Number of loads committed
system.switch_cpus_1.commit.membars                72                       # Number of memory barriers committed
system.switch_cpus_1.commit.branches          5447366                       # Number of branches committed
system.switch_cpus_1.commit.fp_insts         61032861                       # Number of committed floating point instructions.
system.switch_cpus_1.commit.int_insts       169602469                       # Number of committed integer instructions.
system.switch_cpus_1.commit.function_calls           74                       # Number of function calls committed.
system.switch_cpus_1.commit.op_class_0::No_OpClass        58667      0.03%      0.03% # Class of committed instruction
system.switch_cpus_1.commit.op_class_0::IntAlu     69024585     34.50%     34.53% # Class of committed instruction
system.switch_cpus_1.commit.op_class_0::IntMult     22692429     11.34%     45.87% # Class of committed instruction
system.switch_cpus_1.commit.op_class_0::IntDiv            0      0.00%     45.87% # Class of committed instruction
system.switch_cpus_1.commit.op_class_0::FloatAdd     15421069      7.71%     53.58% # Class of committed instruction
system.switch_cpus_1.commit.op_class_0::FloatCmp            0      0.00%     53.58% # Class of committed instruction
system.switch_cpus_1.commit.op_class_0::FloatCvt         3010      0.00%     53.58% # Class of committed instruction
system.switch_cpus_1.commit.op_class_0::FloatMult     13619855      6.81%     60.39% # Class of committed instruction
system.switch_cpus_1.commit.op_class_0::FloatMultAcc            0      0.00%     60.39% # Class of committed instruction
system.switch_cpus_1.commit.op_class_0::FloatDiv      1151536      0.58%     60.97% # Class of committed instruction
system.switch_cpus_1.commit.op_class_0::FloatMisc            0      0.00%     60.97% # Class of committed instruction
system.switch_cpus_1.commit.op_class_0::FloatSqrt       180600      0.09%     61.06% # Class of committed instruction
system.switch_cpus_1.commit.op_class_0::SimdAdd            0      0.00%     61.06% # Class of committed instruction
system.switch_cpus_1.commit.op_class_0::SimdAddAcc            0      0.00%     61.06% # Class of committed instruction
system.switch_cpus_1.commit.op_class_0::SimdAlu            0      0.00%     61.06% # Class of committed instruction
system.switch_cpus_1.commit.op_class_0::SimdCmp            0      0.00%     61.06% # Class of committed instruction
system.switch_cpus_1.commit.op_class_0::SimdCvt            0      0.00%     61.06% # Class of committed instruction
system.switch_cpus_1.commit.op_class_0::SimdMisc            0      0.00%     61.06% # Class of committed instruction
system.switch_cpus_1.commit.op_class_0::SimdMult            0      0.00%     61.06% # Class of committed instruction
system.switch_cpus_1.commit.op_class_0::SimdMultAcc            0      0.00%     61.06% # Class of committed instruction
system.switch_cpus_1.commit.op_class_0::SimdShift            0      0.00%     61.06% # Class of committed instruction
system.switch_cpus_1.commit.op_class_0::SimdShiftAcc            0      0.00%     61.06% # Class of committed instruction
system.switch_cpus_1.commit.op_class_0::SimdSqrt            0      0.00%     61.06% # Class of committed instruction
system.switch_cpus_1.commit.op_class_0::SimdFloatAdd            0      0.00%     61.06% # Class of committed instruction
system.switch_cpus_1.commit.op_class_0::SimdFloatAlu            0      0.00%     61.06% # Class of committed instruction
system.switch_cpus_1.commit.op_class_0::SimdFloatCmp            0      0.00%     61.06% # Class of committed instruction
system.switch_cpus_1.commit.op_class_0::SimdFloatCvt            0      0.00%     61.06% # Class of committed instruction
system.switch_cpus_1.commit.op_class_0::SimdFloatDiv            0      0.00%     61.06% # Class of committed instruction
system.switch_cpus_1.commit.op_class_0::SimdFloatMisc            0      0.00%     61.06% # Class of committed instruction
system.switch_cpus_1.commit.op_class_0::SimdFloatMult            0      0.00%     61.06% # Class of committed instruction
system.switch_cpus_1.commit.op_class_0::SimdFloatMultAcc            0      0.00%     61.06% # Class of committed instruction
system.switch_cpus_1.commit.op_class_0::SimdFloatSqrt            0      0.00%     61.06% # Class of committed instruction
system.switch_cpus_1.commit.op_class_0::MemRead     44149715     22.07%     83.13% # Class of committed instruction
system.switch_cpus_1.commit.op_class_0::MemWrite      3100414      1.55%     84.68% # Class of committed instruction
system.switch_cpus_1.commit.op_class_0::FloatMemRead     23444728     11.72%     96.40% # Class of committed instruction
system.switch_cpus_1.commit.op_class_0::FloatMemWrite      7212063      3.60%    100.00% # Class of committed instruction
system.switch_cpus_1.commit.op_class_0::IprAccess            0      0.00%    100.00% # Class of committed instruction
system.switch_cpus_1.commit.op_class_0::InstPrefetch            0      0.00%    100.00% # Class of committed instruction
system.switch_cpus_1.commit.op_class_0::total    200058671                       # Class of committed instruction
system.switch_cpus_1.commit.bw_lim_events     18633679                       # number cycles where commit BW limit reached
system.switch_cpus_1.rob.rob_reads          419160255                       # The number of ROB reads
system.switch_cpus_1.rob.rob_writes         405156533                       # The number of ROB writes
system.switch_cpus_1.timesIdled                   114                       # Number of times that the entire CPU went into an idle state and unscheduled itself
system.switch_cpus_1.idleCycles                 10213                       # Total number of cycles that the CPU has spent unscheduled due to idling
system.switch_cpus_1.committedInsts         200000004                       # Number of Instructions Simulated
system.switch_cpus_1.committedOps           200000004                       # Number of Ops (including micro ops) Simulated
system.switch_cpus_1.cpi                     1.179521                       # CPI: Cycles Per Instruction
system.switch_cpus_1.cpi_total               1.179521                       # CPI: Total CPI of All Threads
system.switch_cpus_1.ipc                     0.847802                       # IPC: Instructions Per Cycle
system.switch_cpus_1.ipc_total               0.847802                       # IPC: Total IPC of All Threads
system.switch_cpus_1.int_regfile_reads      260991024                       # number of integer regfile reads
system.switch_cpus_1.int_regfile_writes     131551722                       # number of integer regfile writes
system.switch_cpus_1.fp_regfile_reads        68054209                       # number of floating regfile reads
system.switch_cpus_1.fp_regfile_writes       54126949                       # number of floating regfile writes
system.switch_cpus_1.misc_regfile_reads           162                       # number of misc regfile reads
system.switch_cpus_1.misc_regfile_writes          144                       # number of misc regfile writes
system.tol3bus.snoop_filter.tot_requests     21501558                       # Total number of requests made to the snoop filter.
system.tol3bus.snoop_filter.hit_single_requests     10748472                       # Number of requests hitting in the snoop filter with a single holder of the requested data.
system.tol3bus.snoop_filter.hit_multi_requests            0                       # Number of requests hitting in the snoop filter with multiple (>1) holders of the requested data.
system.tol3bus.snoop_filter.tot_snoops          82494                       # Total number of snoops made to the snoop filter.
system.tol3bus.snoop_filter.hit_single_snoops        82494                       # Number of snoops hitting in the snoop filter with a single holder of the requested data.
system.tol3bus.snoop_filter.hit_multi_snoops            0                       # Number of snoops hitting in the snoop filter with multiple (>1) holders of the requested data.
system.tol3bus.pwrStateResidencyTicks::UNDEFINED 75049234291350                       # Cumulative time (in ticks) in various power states
system.tol3bus.trans_dist::ReadResp           8306215                       # Transaction distribution
system.tol3bus.trans_dist::WritebackDirty      6025615                       # Transaction distribution
system.tol3bus.trans_dist::CleanEvict        13236117                       # Transaction distribution
system.tol3bus.trans_dist::ReadExReq          2446871                       # Transaction distribution
system.tol3bus.trans_dist::ReadExResp         2446869                       # Transaction distribution
system.tol3bus.trans_dist::ReadSharedReq      8306215                       # Transaction distribution
system.tol3bus.pkt_count_system.cpu.l2.mem_side::system.l3.cpu_side     32254642                       # Packet count per connected master and slave (bytes)
system.tol3bus.pkt_size_system.cpu.l2.mem_side::system.l3.cpu_side    898555584                       # Cumulative packet size per connected master and slave (bytes)
system.tol3bus.snoops                         8513260                       # Total snoops (count)
system.tol3bus.snoopTraffic                 175281152                       # Total snoop traffic (bytes)
system.tol3bus.snoop_fanout::samples         19266346                       # Request fanout histogram
system.tol3bus.snoop_fanout::mean            0.004282                       # Request fanout histogram
system.tol3bus.snoop_fanout::stdev           0.065295                       # Request fanout histogram
system.tol3bus.snoop_fanout::underflows             0      0.00%      0.00% # Request fanout histogram
system.tol3bus.snoop_fanout::0               19183852     99.57%     99.57% # Request fanout histogram
system.tol3bus.snoop_fanout::1                  82494      0.43%    100.00% # Request fanout histogram
system.tol3bus.snoop_fanout::overflows              0      0.00%    100.00% # Request fanout histogram
system.tol3bus.snoop_fanout::min_value              0                       # Request fanout histogram
system.tol3bus.snoop_fanout::max_value              1                       # Request fanout histogram
system.tol3bus.snoop_fanout::total           19266346                       # Request fanout histogram
system.tol3bus.reqLayer0.occupancy         8254538865                       # Layer occupancy (ticks)
system.tol3bus.reqLayer0.utilization              0.5                       # Layer utilization (%)
system.tol3bus.respLayer0.occupancy        7161553944                       # Layer occupancy (ticks)
system.tol3bus.respLayer0.utilization             0.4                       # Layer utilization (%)

---------- End Simulation Statistics   ----------
