
---------- Begin Simulation Statistics ----------
sim_seconds                                  2.380953                       # Number of seconds simulated
sim_ticks                                2380953057606                       # Number of ticks simulated
final_tick                               75651106858308                       # Number of ticks from beginning of simulation (restored from checkpoints and never reset)
sim_freq                                 1000000000000                       # Frequency of simulated ticks
host_inst_rate                                 377223                       # Simulator instruction rate (inst/s)
host_op_rate                                   377223                       # Simulator op (including micro ops) rate (op/s)
host_tick_rate                              748459464                       # Simulator tick rate (ticks/s)
host_mem_usage                                2404800                       # Number of bytes of host memory used
host_seconds                                  3181.14                       # Real time elapsed on the host
sim_insts                                  1200000010                       # Number of instructions simulated
sim_ops                                    1200000010                       # Number of ops (including micro ops) simulated
system.voltage_domain.voltage                       1                       # Voltage in Volts
system.clk_domain.clock                          1000                       # Clock period in ticks
system.mem_ctrls0.pwrStateResidencyTicks::UNDEFINED 75651106858308                       # Cumulative time (in ticks) in various power states
system.mem_ctrls0.bytes_read::cpu.inst            128                       # Number of bytes read from this memory
system.mem_ctrls0.bytes_read::cpu.data            192                       # Number of bytes read from this memory
system.mem_ctrls0.bytes_read::switch_cpus.inst        43968                       # Number of bytes read from this memory
system.mem_ctrls0.bytes_read::switch_cpus.data    232763584                       # Number of bytes read from this memory
system.mem_ctrls0.bytes_read::switch_cpus_1.inst         3392                       # Number of bytes read from this memory
system.mem_ctrls0.bytes_read::switch_cpus_1.data     40723648                       # Number of bytes read from this memory
system.mem_ctrls0.bytes_read::total         273534912                       # Number of bytes read from this memory
system.mem_ctrls0.bytes_inst_read::cpu.inst          128                       # Number of instructions bytes read from this memory
system.mem_ctrls0.bytes_inst_read::switch_cpus.inst        43968                       # Number of instructions bytes read from this memory
system.mem_ctrls0.bytes_inst_read::switch_cpus_1.inst         3392                       # Number of instructions bytes read from this memory
system.mem_ctrls0.bytes_inst_read::total        47488                       # Number of instructions bytes read from this memory
system.mem_ctrls0.bytes_written::writebacks     87609408                       # Number of bytes written to this memory
system.mem_ctrls0.bytes_written::total       87609408                       # Number of bytes written to this memory
system.mem_ctrls0.num_reads::cpu.inst               2                       # Number of read requests responded to by this memory
system.mem_ctrls0.num_reads::cpu.data               3                       # Number of read requests responded to by this memory
system.mem_ctrls0.num_reads::switch_cpus.inst          687                       # Number of read requests responded to by this memory
system.mem_ctrls0.num_reads::switch_cpus.data      3636931                       # Number of read requests responded to by this memory
system.mem_ctrls0.num_reads::switch_cpus_1.inst           53                       # Number of read requests responded to by this memory
system.mem_ctrls0.num_reads::switch_cpus_1.data       636307                       # Number of read requests responded to by this memory
system.mem_ctrls0.num_reads::total            4273983                       # Number of read requests responded to by this memory
system.mem_ctrls0.num_writes::writebacks      1368897                       # Number of write requests responded to by this memory
system.mem_ctrls0.num_writes::total           1368897                       # Number of write requests responded to by this memory
system.mem_ctrls0.bw_read::cpu.inst                54                       # Total read bandwidth from this memory (bytes/s)
system.mem_ctrls0.bw_read::cpu.data                81                       # Total read bandwidth from this memory (bytes/s)
system.mem_ctrls0.bw_read::switch_cpus.inst        18467                       # Total read bandwidth from this memory (bytes/s)
system.mem_ctrls0.bw_read::switch_cpus.data     97760677                       # Total read bandwidth from this memory (bytes/s)
system.mem_ctrls0.bw_read::switch_cpus_1.inst         1425                       # Total read bandwidth from this memory (bytes/s)
system.mem_ctrls0.bw_read::switch_cpus_1.data     17103927                       # Total read bandwidth from this memory (bytes/s)
system.mem_ctrls0.bw_read::total            114884630                       # Total read bandwidth from this memory (bytes/s)
system.mem_ctrls0.bw_inst_read::cpu.inst           54                       # Instruction read bandwidth from this memory (bytes/s)
system.mem_ctrls0.bw_inst_read::switch_cpus.inst        18467                       # Instruction read bandwidth from this memory (bytes/s)
system.mem_ctrls0.bw_inst_read::switch_cpus_1.inst         1425                       # Instruction read bandwidth from this memory (bytes/s)
system.mem_ctrls0.bw_inst_read::total           19945                       # Instruction read bandwidth from this memory (bytes/s)
system.mem_ctrls0.bw_write::writebacks       36795941                       # Write bandwidth from this memory (bytes/s)
system.mem_ctrls0.bw_write::total            36795941                       # Write bandwidth from this memory (bytes/s)
system.mem_ctrls0.bw_total::writebacks       36795941                       # Total bandwidth to/from this memory (bytes/s)
system.mem_ctrls0.bw_total::cpu.inst               54                       # Total bandwidth to/from this memory (bytes/s)
system.mem_ctrls0.bw_total::cpu.data               81                       # Total bandwidth to/from this memory (bytes/s)
system.mem_ctrls0.bw_total::switch_cpus.inst        18467                       # Total bandwidth to/from this memory (bytes/s)
system.mem_ctrls0.bw_total::switch_cpus.data     97760677                       # Total bandwidth to/from this memory (bytes/s)
system.mem_ctrls0.bw_total::switch_cpus_1.inst         1425                       # Total bandwidth to/from this memory (bytes/s)
system.mem_ctrls0.bw_total::switch_cpus_1.data     17103927                       # Total bandwidth to/from this memory (bytes/s)
system.mem_ctrls0.bw_total::total           151680571                       # Total bandwidth to/from this memory (bytes/s)
system.mem_ctrls0.readReqs                    4273985                       # Number of read requests accepted
system.mem_ctrls0.writeReqs                   1368897                       # Number of write requests accepted
system.mem_ctrls0.readBursts                  4273985                       # Number of DRAM read bursts, including those serviced by the write queue
system.mem_ctrls0.writeBursts                 1368897                       # Number of DRAM write bursts, including those merged in the write queue
system.mem_ctrls0.bytesReadDRAM             273498048                       # Total number of bytes read from DRAM
system.mem_ctrls0.bytesReadWrQ                  36992                       # Total number of bytes read from write queue
system.mem_ctrls0.bytesWritten               87607488                       # Total number of bytes written to DRAM
system.mem_ctrls0.bytesReadSys              273535040                       # Total read bytes from the system interface side
system.mem_ctrls0.bytesWrittenSys            87609408                       # Total written bytes from the system interface side
system.mem_ctrls0.servicedByWrQ                   578                       # Number of DRAM read bursts serviced by the write queue
system.mem_ctrls0.mergedWrBursts                    0                       # Number of DRAM write bursts merged with an existing one
system.mem_ctrls0.neitherReadNorWriteReqs            0                       # Number of requests that are neither read nor write
system.mem_ctrls0.perBankRdBursts::0           272551                       # Per bank write bursts
system.mem_ctrls0.perBankRdBursts::1           269363                       # Per bank write bursts
system.mem_ctrls0.perBankRdBursts::2           266455                       # Per bank write bursts
system.mem_ctrls0.perBankRdBursts::3           267125                       # Per bank write bursts
system.mem_ctrls0.perBankRdBursts::4           266579                       # Per bank write bursts
system.mem_ctrls0.perBankRdBursts::5           269029                       # Per bank write bursts
system.mem_ctrls0.perBankRdBursts::6           268590                       # Per bank write bursts
system.mem_ctrls0.perBankRdBursts::7           269587                       # Per bank write bursts
system.mem_ctrls0.perBankRdBursts::8           270840                       # Per bank write bursts
system.mem_ctrls0.perBankRdBursts::9           268328                       # Per bank write bursts
system.mem_ctrls0.perBankRdBursts::10          263081                       # Per bank write bursts
system.mem_ctrls0.perBankRdBursts::11          260150                       # Per bank write bursts
system.mem_ctrls0.perBankRdBursts::12          259686                       # Per bank write bursts
system.mem_ctrls0.perBankRdBursts::13          264048                       # Per bank write bursts
system.mem_ctrls0.perBankRdBursts::14          268870                       # Per bank write bursts
system.mem_ctrls0.perBankRdBursts::15          269125                       # Per bank write bursts
system.mem_ctrls0.perBankWrBursts::0            88150                       # Per bank write bursts
system.mem_ctrls0.perBankWrBursts::1            86654                       # Per bank write bursts
system.mem_ctrls0.perBankWrBursts::2            86012                       # Per bank write bursts
system.mem_ctrls0.perBankWrBursts::3            87018                       # Per bank write bursts
system.mem_ctrls0.perBankWrBursts::4            87674                       # Per bank write bursts
system.mem_ctrls0.perBankWrBursts::5            87713                       # Per bank write bursts
system.mem_ctrls0.perBankWrBursts::6            85104                       # Per bank write bursts
system.mem_ctrls0.perBankWrBursts::7            84438                       # Per bank write bursts
system.mem_ctrls0.perBankWrBursts::8            84961                       # Per bank write bursts
system.mem_ctrls0.perBankWrBursts::9            85089                       # Per bank write bursts
system.mem_ctrls0.perBankWrBursts::10           84495                       # Per bank write bursts
system.mem_ctrls0.perBankWrBursts::11           83296                       # Per bank write bursts
system.mem_ctrls0.perBankWrBursts::12           82420                       # Per bank write bursts
system.mem_ctrls0.perBankWrBursts::13           83472                       # Per bank write bursts
system.mem_ctrls0.perBankWrBursts::14           85993                       # Per bank write bursts
system.mem_ctrls0.perBankWrBursts::15           86378                       # Per bank write bursts
system.mem_ctrls0.numRdRetry                        0                       # Number of times read queue was full causing retry
system.mem_ctrls0.numWrRetry                        0                       # Number of times write queue was full causing retry
system.mem_ctrls0.totGap                 2380952877120                       # Total gap between requests
system.mem_ctrls0.readPktSize::0                    0                       # Read request sizes (log2)
system.mem_ctrls0.readPktSize::1                    0                       # Read request sizes (log2)
system.mem_ctrls0.readPktSize::2                    0                       # Read request sizes (log2)
system.mem_ctrls0.readPktSize::3                    0                       # Read request sizes (log2)
system.mem_ctrls0.readPktSize::4                    0                       # Read request sizes (log2)
system.mem_ctrls0.readPktSize::5                    0                       # Read request sizes (log2)
system.mem_ctrls0.readPktSize::6              4273985                       # Read request sizes (log2)
system.mem_ctrls0.writePktSize::0                   0                       # Write request sizes (log2)
system.mem_ctrls0.writePktSize::1                   0                       # Write request sizes (log2)
system.mem_ctrls0.writePktSize::2                   0                       # Write request sizes (log2)
system.mem_ctrls0.writePktSize::3                   0                       # Write request sizes (log2)
system.mem_ctrls0.writePktSize::4                   0                       # Write request sizes (log2)
system.mem_ctrls0.writePktSize::5                   0                       # Write request sizes (log2)
system.mem_ctrls0.writePktSize::6             1368897                       # Write request sizes (log2)
system.mem_ctrls0.rdQLenPdf::0                4139666                       # What read queue length does an incoming req see
system.mem_ctrls0.rdQLenPdf::1                 110100                       # What read queue length does an incoming req see
system.mem_ctrls0.rdQLenPdf::2                  22269                       # What read queue length does an incoming req see
system.mem_ctrls0.rdQLenPdf::3                   1372                       # What read queue length does an incoming req see
system.mem_ctrls0.rdQLenPdf::4                      0                       # What read queue length does an incoming req see
system.mem_ctrls0.rdQLenPdf::5                      0                       # What read queue length does an incoming req see
system.mem_ctrls0.rdQLenPdf::6                      0                       # What read queue length does an incoming req see
system.mem_ctrls0.rdQLenPdf::7                      0                       # What read queue length does an incoming req see
system.mem_ctrls0.rdQLenPdf::8                      0                       # What read queue length does an incoming req see
system.mem_ctrls0.rdQLenPdf::9                      0                       # What read queue length does an incoming req see
system.mem_ctrls0.rdQLenPdf::10                     0                       # What read queue length does an incoming req see
system.mem_ctrls0.rdQLenPdf::11                     0                       # What read queue length does an incoming req see
system.mem_ctrls0.rdQLenPdf::12                     0                       # What read queue length does an incoming req see
system.mem_ctrls0.rdQLenPdf::13                     0                       # What read queue length does an incoming req see
system.mem_ctrls0.rdQLenPdf::14                     0                       # What read queue length does an incoming req see
system.mem_ctrls0.rdQLenPdf::15                     0                       # What read queue length does an incoming req see
system.mem_ctrls0.rdQLenPdf::16                     0                       # What read queue length does an incoming req see
system.mem_ctrls0.rdQLenPdf::17                     0                       # What read queue length does an incoming req see
system.mem_ctrls0.rdQLenPdf::18                     0                       # What read queue length does an incoming req see
system.mem_ctrls0.rdQLenPdf::19                     0                       # What read queue length does an incoming req see
system.mem_ctrls0.rdQLenPdf::20                     0                       # What read queue length does an incoming req see
system.mem_ctrls0.rdQLenPdf::21                     0                       # What read queue length does an incoming req see
system.mem_ctrls0.rdQLenPdf::22                     0                       # What read queue length does an incoming req see
system.mem_ctrls0.rdQLenPdf::23                     0                       # What read queue length does an incoming req see
system.mem_ctrls0.rdQLenPdf::24                     0                       # What read queue length does an incoming req see
system.mem_ctrls0.rdQLenPdf::25                     0                       # What read queue length does an incoming req see
system.mem_ctrls0.rdQLenPdf::26                     0                       # What read queue length does an incoming req see
system.mem_ctrls0.rdQLenPdf::27                     0                       # What read queue length does an incoming req see
system.mem_ctrls0.rdQLenPdf::28                     0                       # What read queue length does an incoming req see
system.mem_ctrls0.rdQLenPdf::29                     0                       # What read queue length does an incoming req see
system.mem_ctrls0.rdQLenPdf::30                     0                       # What read queue length does an incoming req see
system.mem_ctrls0.rdQLenPdf::31                     0                       # What read queue length does an incoming req see
system.mem_ctrls0.wrQLenPdf::0                      2                       # What write queue length does an incoming req see
system.mem_ctrls0.wrQLenPdf::1                      2                       # What write queue length does an incoming req see
system.mem_ctrls0.wrQLenPdf::2                      2                       # What write queue length does an incoming req see
system.mem_ctrls0.wrQLenPdf::3                      2                       # What write queue length does an incoming req see
system.mem_ctrls0.wrQLenPdf::4                      2                       # What write queue length does an incoming req see
system.mem_ctrls0.wrQLenPdf::5                      2                       # What write queue length does an incoming req see
system.mem_ctrls0.wrQLenPdf::6                      2                       # What write queue length does an incoming req see
system.mem_ctrls0.wrQLenPdf::7                      2                       # What write queue length does an incoming req see
system.mem_ctrls0.wrQLenPdf::8                      2                       # What write queue length does an incoming req see
system.mem_ctrls0.wrQLenPdf::9                      2                       # What write queue length does an incoming req see
system.mem_ctrls0.wrQLenPdf::10                     2                       # What write queue length does an incoming req see
system.mem_ctrls0.wrQLenPdf::11                     2                       # What write queue length does an incoming req see
system.mem_ctrls0.wrQLenPdf::12                     2                       # What write queue length does an incoming req see
system.mem_ctrls0.wrQLenPdf::13                     2                       # What write queue length does an incoming req see
system.mem_ctrls0.wrQLenPdf::14                     2                       # What write queue length does an incoming req see
system.mem_ctrls0.wrQLenPdf::15                 52637                       # What write queue length does an incoming req see
system.mem_ctrls0.wrQLenPdf::16                 54736                       # What write queue length does an incoming req see
system.mem_ctrls0.wrQLenPdf::17                 75700                       # What write queue length does an incoming req see
system.mem_ctrls0.wrQLenPdf::18                 78530                       # What write queue length does an incoming req see
system.mem_ctrls0.wrQLenPdf::19                 78887                       # What write queue length does an incoming req see
system.mem_ctrls0.wrQLenPdf::20                 78920                       # What write queue length does an incoming req see
system.mem_ctrls0.wrQLenPdf::21                 79026                       # What write queue length does an incoming req see
system.mem_ctrls0.wrQLenPdf::22                 79329                       # What write queue length does an incoming req see
system.mem_ctrls0.wrQLenPdf::23                 79530                       # What write queue length does an incoming req see
system.mem_ctrls0.wrQLenPdf::24                 79249                       # What write queue length does an incoming req see
system.mem_ctrls0.wrQLenPdf::25                 79261                       # What write queue length does an incoming req see
system.mem_ctrls0.wrQLenPdf::26                 79277                       # What write queue length does an incoming req see
system.mem_ctrls0.wrQLenPdf::27                 79172                       # What write queue length does an incoming req see
system.mem_ctrls0.wrQLenPdf::28                 79129                       # What write queue length does an incoming req see
system.mem_ctrls0.wrQLenPdf::29                 78996                       # What write queue length does an incoming req see
system.mem_ctrls0.wrQLenPdf::30                 79061                       # What write queue length does an incoming req see
system.mem_ctrls0.wrQLenPdf::31                 78714                       # What write queue length does an incoming req see
system.mem_ctrls0.wrQLenPdf::32                 78641                       # What write queue length does an incoming req see
system.mem_ctrls0.wrQLenPdf::33                    63                       # What write queue length does an incoming req see
system.mem_ctrls0.wrQLenPdf::34                     8                       # What write queue length does an incoming req see
system.mem_ctrls0.wrQLenPdf::35                     1                       # What write queue length does an incoming req see
system.mem_ctrls0.wrQLenPdf::36                     0                       # What write queue length does an incoming req see
system.mem_ctrls0.wrQLenPdf::37                     0                       # What write queue length does an incoming req see
system.mem_ctrls0.wrQLenPdf::38                     0                       # What write queue length does an incoming req see
system.mem_ctrls0.wrQLenPdf::39                     0                       # What write queue length does an incoming req see
system.mem_ctrls0.wrQLenPdf::40                     0                       # What write queue length does an incoming req see
system.mem_ctrls0.wrQLenPdf::41                     0                       # What write queue length does an incoming req see
system.mem_ctrls0.wrQLenPdf::42                     0                       # What write queue length does an incoming req see
system.mem_ctrls0.wrQLenPdf::43                     0                       # What write queue length does an incoming req see
system.mem_ctrls0.wrQLenPdf::44                     0                       # What write queue length does an incoming req see
system.mem_ctrls0.wrQLenPdf::45                     0                       # What write queue length does an incoming req see
system.mem_ctrls0.wrQLenPdf::46                     0                       # What write queue length does an incoming req see
system.mem_ctrls0.wrQLenPdf::47                     0                       # What write queue length does an incoming req see
system.mem_ctrls0.wrQLenPdf::48                     0                       # What write queue length does an incoming req see
system.mem_ctrls0.wrQLenPdf::49                     0                       # What write queue length does an incoming req see
system.mem_ctrls0.wrQLenPdf::50                     0                       # What write queue length does an incoming req see
system.mem_ctrls0.wrQLenPdf::51                     0                       # What write queue length does an incoming req see
system.mem_ctrls0.wrQLenPdf::52                     0                       # What write queue length does an incoming req see
system.mem_ctrls0.wrQLenPdf::53                     0                       # What write queue length does an incoming req see
system.mem_ctrls0.wrQLenPdf::54                     0                       # What write queue length does an incoming req see
system.mem_ctrls0.wrQLenPdf::55                     0                       # What write queue length does an incoming req see
system.mem_ctrls0.wrQLenPdf::56                     0                       # What write queue length does an incoming req see
system.mem_ctrls0.wrQLenPdf::57                     0                       # What write queue length does an incoming req see
system.mem_ctrls0.wrQLenPdf::58                     0                       # What write queue length does an incoming req see
system.mem_ctrls0.wrQLenPdf::59                     0                       # What write queue length does an incoming req see
system.mem_ctrls0.wrQLenPdf::60                     0                       # What write queue length does an incoming req see
system.mem_ctrls0.wrQLenPdf::61                     0                       # What write queue length does an incoming req see
system.mem_ctrls0.wrQLenPdf::62                     0                       # What write queue length does an incoming req see
system.mem_ctrls0.wrQLenPdf::63                     0                       # What write queue length does an incoming req see
system.mem_ctrls0.bytesPerActivate::samples      2718630                       # Bytes accessed per row activation
system.mem_ctrls0.bytesPerActivate::mean   132.825348                       # Bytes accessed per row activation
system.mem_ctrls0.bytesPerActivate::gmean   103.931125                       # Bytes accessed per row activation
system.mem_ctrls0.bytesPerActivate::stdev   123.198252                       # Bytes accessed per row activation
system.mem_ctrls0.bytesPerActivate::0-127      1440644     52.99%     52.99% # Bytes accessed per row activation
system.mem_ctrls0.bytesPerActivate::128-255       932855     34.31%     87.30% # Bytes accessed per row activation
system.mem_ctrls0.bytesPerActivate::256-383       131924      4.85%     92.16% # Bytes accessed per row activation
system.mem_ctrls0.bytesPerActivate::384-511       112167      4.13%     96.28% # Bytes accessed per row activation
system.mem_ctrls0.bytesPerActivate::512-639        78941      2.90%     99.19% # Bytes accessed per row activation
system.mem_ctrls0.bytesPerActivate::640-767        11606      0.43%     99.61% # Bytes accessed per row activation
system.mem_ctrls0.bytesPerActivate::768-895         3013      0.11%     99.72% # Bytes accessed per row activation
system.mem_ctrls0.bytesPerActivate::896-1023         2205      0.08%     99.81% # Bytes accessed per row activation
system.mem_ctrls0.bytesPerActivate::1024-1151         5275      0.19%    100.00% # Bytes accessed per row activation
system.mem_ctrls0.bytesPerActivate::total      2718630                       # Bytes accessed per row activation
system.mem_ctrls0.rdPerTurnAround::samples        78577                       # Reads before turning the bus around for writes
system.mem_ctrls0.rdPerTurnAround::mean     54.383827                       # Reads before turning the bus around for writes
system.mem_ctrls0.rdPerTurnAround::gmean    48.757547                       # Reads before turning the bus around for writes
system.mem_ctrls0.rdPerTurnAround::stdev   115.590683                       # Reads before turning the bus around for writes
system.mem_ctrls0.rdPerTurnAround::0-1023        78576    100.00%    100.00% # Reads before turning the bus around for writes
system.mem_ctrls0.rdPerTurnAround::30720-31743            1      0.00%    100.00% # Reads before turning the bus around for writes
system.mem_ctrls0.rdPerTurnAround::total        78577                       # Reads before turning the bus around for writes
system.mem_ctrls0.wrPerTurnAround::samples        78577                       # Writes before turning the bus around for reads
system.mem_ctrls0.wrPerTurnAround::mean     17.420708                       # Writes before turning the bus around for reads
system.mem_ctrls0.wrPerTurnAround::gmean    17.392285                       # Writes before turning the bus around for reads
system.mem_ctrls0.wrPerTurnAround::stdev     0.985141                       # Writes before turning the bus around for reads
system.mem_ctrls0.wrPerTurnAround::16           23868     30.38%     30.38% # Writes before turning the bus around for reads
system.mem_ctrls0.wrPerTurnAround::17            1848      2.35%     32.73% # Writes before turning the bus around for reads
system.mem_ctrls0.wrPerTurnAround::18           49293     62.73%     95.46% # Writes before turning the bus around for reads
system.mem_ctrls0.wrPerTurnAround::19            3125      3.98%     99.44% # Writes before turning the bus around for reads
system.mem_ctrls0.wrPerTurnAround::20             404      0.51%     99.95% # Writes before turning the bus around for reads
system.mem_ctrls0.wrPerTurnAround::21              34      0.04%     99.99% # Writes before turning the bus around for reads
system.mem_ctrls0.wrPerTurnAround::22               4      0.01%    100.00% # Writes before turning the bus around for reads
system.mem_ctrls0.wrPerTurnAround::32               1      0.00%    100.00% # Writes before turning the bus around for reads
system.mem_ctrls0.wrPerTurnAround::total        78577                       # Writes before turning the bus around for reads
system.mem_ctrls0.totQLat                 99109318311                       # Total ticks spent queuing
system.mem_ctrls0.totMemAccLat           179235699561                       # Total ticks spent from burst creation until serviced by the DRAM
system.mem_ctrls0.totBusLat               21367035000                       # Total ticks spent in databus transfers
system.mem_ctrls0.avgQLat                    23192.11                       # Average queueing delay per DRAM burst
system.mem_ctrls0.avgBusLat                   5000.00                       # Average bus latency per DRAM burst
system.mem_ctrls0.avgMemAccLat               41942.11                       # Average memory access latency per DRAM burst
system.mem_ctrls0.avgRdBW                      114.87                       # Average DRAM read bandwidth in MiByte/s
system.mem_ctrls0.avgWrBW                       36.80                       # Average achieved write bandwidth in MiByte/s
system.mem_ctrls0.avgRdBWSys                   114.88                       # Average system read bandwidth in MiByte/s
system.mem_ctrls0.avgWrBWSys                    36.80                       # Average system write bandwidth in MiByte/s
system.mem_ctrls0.peakBW                     12800.00                       # Theoretical peak bandwidth in MiByte/s
system.mem_ctrls0.busUtil                        1.18                       # Data bus utilization in percentage
system.mem_ctrls0.busUtilRead                    0.90                       # Data bus utilization in percentage for reads
system.mem_ctrls0.busUtilWrite                   0.29                       # Data bus utilization in percentage for writes
system.mem_ctrls0.avgRdQLen                      1.01                       # Average read queue length when enqueuing
system.mem_ctrls0.avgWrQLen                     24.44                       # Average write queue length when enqueuing
system.mem_ctrls0.readRowHits                 2471416                       # Number of row buffer hits during reads
system.mem_ctrls0.writeRowHits                 452219                       # Number of row buffer hits during writes
system.mem_ctrls0.readRowHitRate                57.83                       # Row buffer hit rate for reads
system.mem_ctrls0.writeRowHitRate               33.04                       # Row buffer hit rate for writes
system.mem_ctrls0.avgGap                    421939.16                       # Average gap between requests
system.mem_ctrls0.pageHitRate                   51.82                       # Row buffer hit rate, read and write combined
system.mem_ctrls0_0.actEnergy              9779793660                       # Energy for activate commands per rank (pJ)
system.mem_ctrls0_0.preEnergy              5198060835                       # Energy for precharge commands per rank (pJ)
system.mem_ctrls0_0.readEnergy            15345852060                       # Energy for read commands per rank (pJ)
system.mem_ctrls0_0.writeEnergy            3616222860                       # Energy for write commands per rank (pJ)
system.mem_ctrls0_0.refreshEnergy        184059479760.000031                       # Energy for refresh commands per rank (pJ)
system.mem_ctrls0_0.actBackEnergy        107218312140                       # Energy for active background per rank (pJ)
system.mem_ctrls0_0.preBackEnergy          6551758560                       # Energy for precharge background per rank (pJ)
system.mem_ctrls0_0.actPowerDownEnergy   710989414500                       # Energy for active power-down per rank (pJ)
system.mem_ctrls0_0.prePowerDownEnergy   143815144320                       # Energy for precharge power-down per rank (pJ)
system.mem_ctrls0_0.selfRefreshEnergy     57927398910                       # Energy for self refresh per rank (pJ)
system.mem_ctrls0_0.totalEnergy          1244543057115                       # Total energy per rank (pJ)
system.mem_ctrls0_0.averagePower           522.707934                       # Core power per rank (mW)
system.mem_ctrls0_0.totalIdleTime        2128667629616                       # Total Idle time Per DRAM Rank
system.mem_ctrls0_0.memoryStateTime::IDLE   7112723558                       # Time in different power states
system.mem_ctrls0_0.memoryStateTime::REF  77984542000                       # Time in different power states
system.mem_ctrls0_0.memoryStateTime::SREF 194964733828                       # Time in different power states
system.mem_ctrls0_0.memoryStateTime::PRE_PDN 374521819087                       # Time in different power states
system.mem_ctrls0_0.memoryStateTime::ACT 167188162432                       # Time in different power states
system.mem_ctrls0_0.memoryStateTime::ACT_PDN 1559181076701                       # Time in different power states
system.mem_ctrls0_1.actEnergy              9631288800                       # Energy for activate commands per rank (pJ)
system.mem_ctrls0_1.preEnergy              5119140015                       # Energy for precharge commands per rank (pJ)
system.mem_ctrls0_1.readEnergy            15166266780                       # Energy for read commands per rank (pJ)
system.mem_ctrls0_1.writeEnergy            3529262880                       # Energy for write commands per rank (pJ)
system.mem_ctrls0_1.refreshEnergy        183380302560.000031                       # Energy for refresh commands per rank (pJ)
system.mem_ctrls0_1.actBackEnergy        107594094330                       # Energy for active background per rank (pJ)
system.mem_ctrls0_1.preBackEnergy          6592101120                       # Energy for precharge background per rank (pJ)
system.mem_ctrls0_1.actPowerDownEnergy   704415511590                       # Energy for active power-down per rank (pJ)
system.mem_ctrls0_1.prePowerDownEnergy   143732382240                       # Energy for precharge power-down per rank (pJ)
system.mem_ctrls0_1.selfRefreshEnergy     61604540370                       # Energy for self refresh per rank (pJ)
system.mem_ctrls0_1.totalEnergy          1240807498125                       # Total energy per rank (pJ)
system.mem_ctrls0_1.averagePower           521.138997                       # Core power per rank (mW)
system.mem_ctrls0_1.totalIdleTime        2127737280693                       # Total Idle time Per DRAM Rank
system.mem_ctrls0_1.memoryStateTime::IDLE   7267964029                       # Time in different power states
system.mem_ctrls0_1.memoryStateTime::REF  77701400000                       # Time in different power states
system.mem_ctrls0_1.memoryStateTime::SREF 208665357287                       # Time in different power states
system.mem_ctrls0_1.memoryStateTime::PRE_PDN 374300403793                       # Time in different power states
system.mem_ctrls0_1.memoryStateTime::ACT 168246412884                       # Time in different power states
system.mem_ctrls0_1.memoryStateTime::ACT_PDN 1544771519613                       # Time in different power states
system.mem_ctrls1.pwrStateResidencyTicks::UNDEFINED 75651106858308                       # Cumulative time (in ticks) in various power states
system.mem_ctrls1.bytes_read::cpu.inst            128                       # Number of bytes read from this memory
system.mem_ctrls1.bytes_read::cpu.data            192                       # Number of bytes read from this memory
system.mem_ctrls1.bytes_read::switch_cpus.inst        43840                       # Number of bytes read from this memory
system.mem_ctrls1.bytes_read::switch_cpus.data    232782848                       # Number of bytes read from this memory
system.mem_ctrls1.bytes_read::switch_cpus_1.inst         3200                       # Number of bytes read from this memory
system.mem_ctrls1.bytes_read::switch_cpus_1.data     40743424                       # Number of bytes read from this memory
system.mem_ctrls1.bytes_read::total         273573632                       # Number of bytes read from this memory
system.mem_ctrls1.bytes_inst_read::cpu.inst          128                       # Number of instructions bytes read from this memory
system.mem_ctrls1.bytes_inst_read::switch_cpus.inst        43840                       # Number of instructions bytes read from this memory
system.mem_ctrls1.bytes_inst_read::switch_cpus_1.inst         3200                       # Number of instructions bytes read from this memory
system.mem_ctrls1.bytes_inst_read::total        47168                       # Number of instructions bytes read from this memory
system.mem_ctrls1.bytes_written::writebacks     87622336                       # Number of bytes written to this memory
system.mem_ctrls1.bytes_written::total       87622336                       # Number of bytes written to this memory
system.mem_ctrls1.num_reads::cpu.inst               2                       # Number of read requests responded to by this memory
system.mem_ctrls1.num_reads::cpu.data               3                       # Number of read requests responded to by this memory
system.mem_ctrls1.num_reads::switch_cpus.inst          685                       # Number of read requests responded to by this memory
system.mem_ctrls1.num_reads::switch_cpus.data      3637232                       # Number of read requests responded to by this memory
system.mem_ctrls1.num_reads::switch_cpus_1.inst           50                       # Number of read requests responded to by this memory
system.mem_ctrls1.num_reads::switch_cpus_1.data       636616                       # Number of read requests responded to by this memory
system.mem_ctrls1.num_reads::total            4274588                       # Number of read requests responded to by this memory
system.mem_ctrls1.num_writes::writebacks      1369099                       # Number of write requests responded to by this memory
system.mem_ctrls1.num_writes::total           1369099                       # Number of write requests responded to by this memory
system.mem_ctrls1.bw_read::cpu.inst                54                       # Total read bandwidth from this memory (bytes/s)
system.mem_ctrls1.bw_read::cpu.data                81                       # Total read bandwidth from this memory (bytes/s)
system.mem_ctrls1.bw_read::switch_cpus.inst        18413                       # Total read bandwidth from this memory (bytes/s)
system.mem_ctrls1.bw_read::switch_cpus.data     97768768                       # Total read bandwidth from this memory (bytes/s)
system.mem_ctrls1.bw_read::switch_cpus_1.inst         1344                       # Total read bandwidth from this memory (bytes/s)
system.mem_ctrls1.bw_read::switch_cpus_1.data     17112233                       # Total read bandwidth from this memory (bytes/s)
system.mem_ctrls1.bw_read::total            114900893                       # Total read bandwidth from this memory (bytes/s)
system.mem_ctrls1.bw_inst_read::cpu.inst           54                       # Instruction read bandwidth from this memory (bytes/s)
system.mem_ctrls1.bw_inst_read::switch_cpus.inst        18413                       # Instruction read bandwidth from this memory (bytes/s)
system.mem_ctrls1.bw_inst_read::switch_cpus_1.inst         1344                       # Instruction read bandwidth from this memory (bytes/s)
system.mem_ctrls1.bw_inst_read::total           19811                       # Instruction read bandwidth from this memory (bytes/s)
system.mem_ctrls1.bw_write::writebacks       36801371                       # Write bandwidth from this memory (bytes/s)
system.mem_ctrls1.bw_write::total            36801371                       # Write bandwidth from this memory (bytes/s)
system.mem_ctrls1.bw_total::writebacks       36801371                       # Total bandwidth to/from this memory (bytes/s)
system.mem_ctrls1.bw_total::cpu.inst               54                       # Total bandwidth to/from this memory (bytes/s)
system.mem_ctrls1.bw_total::cpu.data               81                       # Total bandwidth to/from this memory (bytes/s)
system.mem_ctrls1.bw_total::switch_cpus.inst        18413                       # Total bandwidth to/from this memory (bytes/s)
system.mem_ctrls1.bw_total::switch_cpus.data     97768768                       # Total bandwidth to/from this memory (bytes/s)
system.mem_ctrls1.bw_total::switch_cpus_1.inst         1344                       # Total bandwidth to/from this memory (bytes/s)
system.mem_ctrls1.bw_total::switch_cpus_1.data     17112233                       # Total bandwidth to/from this memory (bytes/s)
system.mem_ctrls1.bw_total::total           151702263                       # Total bandwidth to/from this memory (bytes/s)
system.mem_ctrls1.readReqs                    4274588                       # Number of read requests accepted
system.mem_ctrls1.writeReqs                   1369099                       # Number of write requests accepted
system.mem_ctrls1.readBursts                  4274588                       # Number of DRAM read bursts, including those serviced by the write queue
system.mem_ctrls1.writeBursts                 1369099                       # Number of DRAM write bursts, including those merged in the write queue
system.mem_ctrls1.bytesReadDRAM             273539200                       # Total number of bytes read from DRAM
system.mem_ctrls1.bytesReadWrQ                  34432                       # Total number of bytes read from write queue
system.mem_ctrls1.bytesWritten               87620608                       # Total number of bytes written to DRAM
system.mem_ctrls1.bytesReadSys              273573632                       # Total read bytes from the system interface side
system.mem_ctrls1.bytesWrittenSys            87622336                       # Total written bytes from the system interface side
system.mem_ctrls1.servicedByWrQ                   538                       # Number of DRAM read bursts serviced by the write queue
system.mem_ctrls1.mergedWrBursts                    0                       # Number of DRAM write bursts merged with an existing one
system.mem_ctrls1.neitherReadNorWriteReqs            0                       # Number of requests that are neither read nor write
system.mem_ctrls1.perBankRdBursts::0           272862                       # Per bank write bursts
system.mem_ctrls1.perBankRdBursts::1           269478                       # Per bank write bursts
system.mem_ctrls1.perBankRdBursts::2           266318                       # Per bank write bursts
system.mem_ctrls1.perBankRdBursts::3           267117                       # Per bank write bursts
system.mem_ctrls1.perBankRdBursts::4           266767                       # Per bank write bursts
system.mem_ctrls1.perBankRdBursts::5           268941                       # Per bank write bursts
system.mem_ctrls1.perBankRdBursts::6           268848                       # Per bank write bursts
system.mem_ctrls1.perBankRdBursts::7           269653                       # Per bank write bursts
system.mem_ctrls1.perBankRdBursts::8           271106                       # Per bank write bursts
system.mem_ctrls1.perBankRdBursts::9           268425                       # Per bank write bursts
system.mem_ctrls1.perBankRdBursts::10          262801                       # Per bank write bursts
system.mem_ctrls1.perBankRdBursts::11          260167                       # Per bank write bursts
system.mem_ctrls1.perBankRdBursts::12          259497                       # Per bank write bursts
system.mem_ctrls1.perBankRdBursts::13          263861                       # Per bank write bursts
system.mem_ctrls1.perBankRdBursts::14          268975                       # Per bank write bursts
system.mem_ctrls1.perBankRdBursts::15          269234                       # Per bank write bursts
system.mem_ctrls1.perBankWrBursts::0            88122                       # Per bank write bursts
system.mem_ctrls1.perBankWrBursts::1            86778                       # Per bank write bursts
system.mem_ctrls1.perBankWrBursts::2            85954                       # Per bank write bursts
system.mem_ctrls1.perBankWrBursts::3            87122                       # Per bank write bursts
system.mem_ctrls1.perBankWrBursts::4            87507                       # Per bank write bursts
system.mem_ctrls1.perBankWrBursts::5            87605                       # Per bank write bursts
system.mem_ctrls1.perBankWrBursts::6            85086                       # Per bank write bursts
system.mem_ctrls1.perBankWrBursts::7            84394                       # Per bank write bursts
system.mem_ctrls1.perBankWrBursts::8            84897                       # Per bank write bursts
system.mem_ctrls1.perBankWrBursts::9            85318                       # Per bank write bursts
system.mem_ctrls1.perBankWrBursts::10           84491                       # Per bank write bursts
system.mem_ctrls1.perBankWrBursts::11           83331                       # Per bank write bursts
system.mem_ctrls1.perBankWrBursts::12           82518                       # Per bank write bursts
system.mem_ctrls1.perBankWrBursts::13           83470                       # Per bank write bursts
system.mem_ctrls1.perBankWrBursts::14           85985                       # Per bank write bursts
system.mem_ctrls1.perBankWrBursts::15           86494                       # Per bank write bursts
system.mem_ctrls1.numRdRetry                        0                       # Number of times read queue was full causing retry
system.mem_ctrls1.numWrRetry                        0                       # Number of times write queue was full causing retry
system.mem_ctrls1.totGap                 2380952826837                       # Total gap between requests
system.mem_ctrls1.readPktSize::0                    0                       # Read request sizes (log2)
system.mem_ctrls1.readPktSize::1                    0                       # Read request sizes (log2)
system.mem_ctrls1.readPktSize::2                    0                       # Read request sizes (log2)
system.mem_ctrls1.readPktSize::3                    0                       # Read request sizes (log2)
system.mem_ctrls1.readPktSize::4                    0                       # Read request sizes (log2)
system.mem_ctrls1.readPktSize::5                    0                       # Read request sizes (log2)
system.mem_ctrls1.readPktSize::6              4274588                       # Read request sizes (log2)
system.mem_ctrls1.writePktSize::0                   0                       # Write request sizes (log2)
system.mem_ctrls1.writePktSize::1                   0                       # Write request sizes (log2)
system.mem_ctrls1.writePktSize::2                   0                       # Write request sizes (log2)
system.mem_ctrls1.writePktSize::3                   0                       # Write request sizes (log2)
system.mem_ctrls1.writePktSize::4                   0                       # Write request sizes (log2)
system.mem_ctrls1.writePktSize::5                   0                       # Write request sizes (log2)
system.mem_ctrls1.writePktSize::6             1369099                       # Write request sizes (log2)
system.mem_ctrls1.rdQLenPdf::0                4140551                       # What read queue length does an incoming req see
system.mem_ctrls1.rdQLenPdf::1                 109846                       # What read queue length does an incoming req see
system.mem_ctrls1.rdQLenPdf::2                  22261                       # What read queue length does an incoming req see
system.mem_ctrls1.rdQLenPdf::3                   1392                       # What read queue length does an incoming req see
system.mem_ctrls1.rdQLenPdf::4                      0                       # What read queue length does an incoming req see
system.mem_ctrls1.rdQLenPdf::5                      0                       # What read queue length does an incoming req see
system.mem_ctrls1.rdQLenPdf::6                      0                       # What read queue length does an incoming req see
system.mem_ctrls1.rdQLenPdf::7                      0                       # What read queue length does an incoming req see
system.mem_ctrls1.rdQLenPdf::8                      0                       # What read queue length does an incoming req see
system.mem_ctrls1.rdQLenPdf::9                      0                       # What read queue length does an incoming req see
system.mem_ctrls1.rdQLenPdf::10                     0                       # What read queue length does an incoming req see
system.mem_ctrls1.rdQLenPdf::11                     0                       # What read queue length does an incoming req see
system.mem_ctrls1.rdQLenPdf::12                     0                       # What read queue length does an incoming req see
system.mem_ctrls1.rdQLenPdf::13                     0                       # What read queue length does an incoming req see
system.mem_ctrls1.rdQLenPdf::14                     0                       # What read queue length does an incoming req see
system.mem_ctrls1.rdQLenPdf::15                     0                       # What read queue length does an incoming req see
system.mem_ctrls1.rdQLenPdf::16                     0                       # What read queue length does an incoming req see
system.mem_ctrls1.rdQLenPdf::17                     0                       # What read queue length does an incoming req see
system.mem_ctrls1.rdQLenPdf::18                     0                       # What read queue length does an incoming req see
system.mem_ctrls1.rdQLenPdf::19                     0                       # What read queue length does an incoming req see
system.mem_ctrls1.rdQLenPdf::20                     0                       # What read queue length does an incoming req see
system.mem_ctrls1.rdQLenPdf::21                     0                       # What read queue length does an incoming req see
system.mem_ctrls1.rdQLenPdf::22                     0                       # What read queue length does an incoming req see
system.mem_ctrls1.rdQLenPdf::23                     0                       # What read queue length does an incoming req see
system.mem_ctrls1.rdQLenPdf::24                     0                       # What read queue length does an incoming req see
system.mem_ctrls1.rdQLenPdf::25                     0                       # What read queue length does an incoming req see
system.mem_ctrls1.rdQLenPdf::26                     0                       # What read queue length does an incoming req see
system.mem_ctrls1.rdQLenPdf::27                     0                       # What read queue length does an incoming req see
system.mem_ctrls1.rdQLenPdf::28                     0                       # What read queue length does an incoming req see
system.mem_ctrls1.rdQLenPdf::29                     0                       # What read queue length does an incoming req see
system.mem_ctrls1.rdQLenPdf::30                     0                       # What read queue length does an incoming req see
system.mem_ctrls1.rdQLenPdf::31                     0                       # What read queue length does an incoming req see
system.mem_ctrls1.wrQLenPdf::0                      2                       # What write queue length does an incoming req see
system.mem_ctrls1.wrQLenPdf::1                      2                       # What write queue length does an incoming req see
system.mem_ctrls1.wrQLenPdf::2                      2                       # What write queue length does an incoming req see
system.mem_ctrls1.wrQLenPdf::3                      2                       # What write queue length does an incoming req see
system.mem_ctrls1.wrQLenPdf::4                      2                       # What write queue length does an incoming req see
system.mem_ctrls1.wrQLenPdf::5                      2                       # What write queue length does an incoming req see
system.mem_ctrls1.wrQLenPdf::6                      2                       # What write queue length does an incoming req see
system.mem_ctrls1.wrQLenPdf::7                      2                       # What write queue length does an incoming req see
system.mem_ctrls1.wrQLenPdf::8                      2                       # What write queue length does an incoming req see
system.mem_ctrls1.wrQLenPdf::9                      2                       # What write queue length does an incoming req see
system.mem_ctrls1.wrQLenPdf::10                     2                       # What write queue length does an incoming req see
system.mem_ctrls1.wrQLenPdf::11                     2                       # What write queue length does an incoming req see
system.mem_ctrls1.wrQLenPdf::12                     2                       # What write queue length does an incoming req see
system.mem_ctrls1.wrQLenPdf::13                     2                       # What write queue length does an incoming req see
system.mem_ctrls1.wrQLenPdf::14                     2                       # What write queue length does an incoming req see
system.mem_ctrls1.wrQLenPdf::15                 52633                       # What write queue length does an incoming req see
system.mem_ctrls1.wrQLenPdf::16                 54758                       # What write queue length does an incoming req see
system.mem_ctrls1.wrQLenPdf::17                 75806                       # What write queue length does an incoming req see
system.mem_ctrls1.wrQLenPdf::18                 78510                       # What write queue length does an incoming req see
system.mem_ctrls1.wrQLenPdf::19                 78875                       # What write queue length does an incoming req see
system.mem_ctrls1.wrQLenPdf::20                 78940                       # What write queue length does an incoming req see
system.mem_ctrls1.wrQLenPdf::21                 79023                       # What write queue length does an incoming req see
system.mem_ctrls1.wrQLenPdf::22                 79436                       # What write queue length does an incoming req see
system.mem_ctrls1.wrQLenPdf::23                 79555                       # What write queue length does an incoming req see
system.mem_ctrls1.wrQLenPdf::24                 79273                       # What write queue length does an incoming req see
system.mem_ctrls1.wrQLenPdf::25                 79266                       # What write queue length does an incoming req see
system.mem_ctrls1.wrQLenPdf::26                 79276                       # What write queue length does an incoming req see
system.mem_ctrls1.wrQLenPdf::27                 79194                       # What write queue length does an incoming req see
system.mem_ctrls1.wrQLenPdf::28                 79106                       # What write queue length does an incoming req see
system.mem_ctrls1.wrQLenPdf::29                 78970                       # What write queue length does an incoming req see
system.mem_ctrls1.wrQLenPdf::30                 79021                       # What write queue length does an incoming req see
system.mem_ctrls1.wrQLenPdf::31                 78718                       # What write queue length does an incoming req see
system.mem_ctrls1.wrQLenPdf::32                 78641                       # What write queue length does an incoming req see
system.mem_ctrls1.wrQLenPdf::33                    63                       # What write queue length does an incoming req see
system.mem_ctrls1.wrQLenPdf::34                     5                       # What write queue length does an incoming req see
system.mem_ctrls1.wrQLenPdf::35                     0                       # What write queue length does an incoming req see
system.mem_ctrls1.wrQLenPdf::36                     0                       # What write queue length does an incoming req see
system.mem_ctrls1.wrQLenPdf::37                     0                       # What write queue length does an incoming req see
system.mem_ctrls1.wrQLenPdf::38                     0                       # What write queue length does an incoming req see
system.mem_ctrls1.wrQLenPdf::39                     0                       # What write queue length does an incoming req see
system.mem_ctrls1.wrQLenPdf::40                     0                       # What write queue length does an incoming req see
system.mem_ctrls1.wrQLenPdf::41                     0                       # What write queue length does an incoming req see
system.mem_ctrls1.wrQLenPdf::42                     0                       # What write queue length does an incoming req see
system.mem_ctrls1.wrQLenPdf::43                     0                       # What write queue length does an incoming req see
system.mem_ctrls1.wrQLenPdf::44                     0                       # What write queue length does an incoming req see
system.mem_ctrls1.wrQLenPdf::45                     0                       # What write queue length does an incoming req see
system.mem_ctrls1.wrQLenPdf::46                     0                       # What write queue length does an incoming req see
system.mem_ctrls1.wrQLenPdf::47                     0                       # What write queue length does an incoming req see
system.mem_ctrls1.wrQLenPdf::48                     0                       # What write queue length does an incoming req see
system.mem_ctrls1.wrQLenPdf::49                     0                       # What write queue length does an incoming req see
system.mem_ctrls1.wrQLenPdf::50                     0                       # What write queue length does an incoming req see
system.mem_ctrls1.wrQLenPdf::51                     0                       # What write queue length does an incoming req see
system.mem_ctrls1.wrQLenPdf::52                     0                       # What write queue length does an incoming req see
system.mem_ctrls1.wrQLenPdf::53                     0                       # What write queue length does an incoming req see
system.mem_ctrls1.wrQLenPdf::54                     0                       # What write queue length does an incoming req see
system.mem_ctrls1.wrQLenPdf::55                     0                       # What write queue length does an incoming req see
system.mem_ctrls1.wrQLenPdf::56                     0                       # What write queue length does an incoming req see
system.mem_ctrls1.wrQLenPdf::57                     0                       # What write queue length does an incoming req see
system.mem_ctrls1.wrQLenPdf::58                     0                       # What write queue length does an incoming req see
system.mem_ctrls1.wrQLenPdf::59                     0                       # What write queue length does an incoming req see
system.mem_ctrls1.wrQLenPdf::60                     0                       # What write queue length does an incoming req see
system.mem_ctrls1.wrQLenPdf::61                     0                       # What write queue length does an incoming req see
system.mem_ctrls1.wrQLenPdf::62                     0                       # What write queue length does an incoming req see
system.mem_ctrls1.wrQLenPdf::63                     0                       # What write queue length does an incoming req see
system.mem_ctrls1.bytesPerActivate::samples      2719959                       # Bytes accessed per row activation
system.mem_ctrls1.bytesPerActivate::mean   132.781084                       # Bytes accessed per row activation
system.mem_ctrls1.bytesPerActivate::gmean   103.921677                       # Bytes accessed per row activation
system.mem_ctrls1.bytesPerActivate::stdev   123.101534                       # Bytes accessed per row activation
system.mem_ctrls1.bytesPerActivate::0-127      1441025     52.98%     52.98% # Bytes accessed per row activation
system.mem_ctrls1.bytesPerActivate::128-255       933710     34.33%     87.31% # Bytes accessed per row activation
system.mem_ctrls1.bytesPerActivate::256-383       132345      4.87%     92.17% # Bytes accessed per row activation
system.mem_ctrls1.bytesPerActivate::384-511       111938      4.12%     96.29% # Bytes accessed per row activation
system.mem_ctrls1.bytesPerActivate::512-639        78836      2.90%     99.19% # Bytes accessed per row activation
system.mem_ctrls1.bytesPerActivate::640-767        11711      0.43%     99.62% # Bytes accessed per row activation
system.mem_ctrls1.bytesPerActivate::768-895         2867      0.11%     99.72% # Bytes accessed per row activation
system.mem_ctrls1.bytesPerActivate::896-1023         2171      0.08%     99.80% # Bytes accessed per row activation
system.mem_ctrls1.bytesPerActivate::1024-1151         5356      0.20%    100.00% # Bytes accessed per row activation
system.mem_ctrls1.bytesPerActivate::total      2719959                       # Bytes accessed per row activation
system.mem_ctrls1.rdPerTurnAround::samples        78576                       # Reads before turning the bus around for writes
system.mem_ctrls1.rdPerTurnAround::mean     54.393212                       # Reads before turning the bus around for writes
system.mem_ctrls1.rdPerTurnAround::gmean    48.760500                       # Reads before turning the bus around for writes
system.mem_ctrls1.rdPerTurnAround::stdev   115.920387                       # Reads before turning the bus around for writes
system.mem_ctrls1.rdPerTurnAround::0-1023        78574    100.00%    100.00% # Reads before turning the bus around for writes
system.mem_ctrls1.rdPerTurnAround::1024-2047            1      0.00%    100.00% # Reads before turning the bus around for writes
system.mem_ctrls1.rdPerTurnAround::30720-31743            1      0.00%    100.00% # Reads before turning the bus around for writes
system.mem_ctrls1.rdPerTurnAround::total        78576                       # Reads before turning the bus around for writes
system.mem_ctrls1.wrPerTurnAround::samples        78576                       # Writes before turning the bus around for reads
system.mem_ctrls1.wrPerTurnAround::mean     17.423539                       # Writes before turning the bus around for reads
system.mem_ctrls1.wrPerTurnAround::gmean    17.395053                       # Writes before turning the bus around for reads
system.mem_ctrls1.wrPerTurnAround::stdev     0.985912                       # Writes before turning the bus around for reads
system.mem_ctrls1.wrPerTurnAround::16           23843     30.34%     30.34% # Writes before turning the bus around for reads
system.mem_ctrls1.wrPerTurnAround::17            1806      2.30%     32.64% # Writes before turning the bus around for reads
system.mem_ctrls1.wrPerTurnAround::18           49235     62.66%     95.30% # Writes before turning the bus around for reads
system.mem_ctrls1.wrPerTurnAround::19            3237      4.12%     99.42% # Writes before turning the bus around for reads
system.mem_ctrls1.wrPerTurnAround::20             409      0.52%     99.94% # Writes before turning the bus around for reads
system.mem_ctrls1.wrPerTurnAround::21              44      0.06%    100.00% # Writes before turning the bus around for reads
system.mem_ctrls1.wrPerTurnAround::22               1      0.00%    100.00% # Writes before turning the bus around for reads
system.mem_ctrls1.wrPerTurnAround::23               1      0.00%    100.00% # Writes before turning the bus around for reads
system.mem_ctrls1.wrPerTurnAround::total        78576                       # Writes before turning the bus around for reads
system.mem_ctrls1.totQLat                 99033179615                       # Total ticks spent queuing
system.mem_ctrls1.totMemAccLat           179171617115                       # Total ticks spent from burst creation until serviced by the DRAM
system.mem_ctrls1.totBusLat               21370250000                       # Total ticks spent in databus transfers
system.mem_ctrls1.avgQLat                    23170.81                       # Average queueing delay per DRAM burst
system.mem_ctrls1.avgBusLat                   5000.00                       # Average bus latency per DRAM burst
system.mem_ctrls1.avgMemAccLat               41920.81                       # Average memory access latency per DRAM burst
system.mem_ctrls1.avgRdBW                      114.89                       # Average DRAM read bandwidth in MiByte/s
system.mem_ctrls1.avgWrBW                       36.80                       # Average achieved write bandwidth in MiByte/s
system.mem_ctrls1.avgRdBWSys                   114.90                       # Average system read bandwidth in MiByte/s
system.mem_ctrls1.avgWrBWSys                    36.80                       # Average system write bandwidth in MiByte/s
system.mem_ctrls1.peakBW                     12800.00                       # Theoretical peak bandwidth in MiByte/s
system.mem_ctrls1.busUtil                        1.19                       # Data bus utilization in percentage
system.mem_ctrls1.busUtilRead                    0.90                       # Data bus utilization in percentage for reads
system.mem_ctrls1.busUtilWrite                   0.29                       # Data bus utilization in percentage for writes
system.mem_ctrls1.avgRdQLen                      1.01                       # Average read queue length when enqueuing
system.mem_ctrls1.avgWrQLen                     24.44                       # Average write queue length when enqueuing
system.mem_ctrls1.readRowHits                 2471878                       # Number of row buffer hits during reads
system.mem_ctrls1.writeRowHits                 451279                       # Number of row buffer hits during writes
system.mem_ctrls1.readRowHitRate                57.83                       # Row buffer hit rate for reads
system.mem_ctrls1.writeRowHitRate               32.96                       # Row buffer hit rate for writes
system.mem_ctrls1.avgGap                    421878.96                       # Average gap between requests
system.mem_ctrls1.pageHitRate                   51.80                       # Row buffer hit rate, read and write combined
system.mem_ctrls1_0.actEnergy              9782706780                       # Energy for activate commands per rank (pJ)
system.mem_ctrls1_0.preEnergy              5199620580                       # Energy for precharge commands per rank (pJ)
system.mem_ctrls1_0.readEnergy            15350885760                       # Energy for read commands per rank (pJ)
system.mem_ctrls1_0.writeEnergy            3615204960                       # Energy for write commands per rank (pJ)
system.mem_ctrls1_0.refreshEnergy        184007850000.000031                       # Energy for refresh commands per rank (pJ)
system.mem_ctrls1_0.actBackEnergy        107321174910                       # Energy for active background per rank (pJ)
system.mem_ctrls1_0.preBackEnergy          6532553280                       # Energy for precharge background per rank (pJ)
system.mem_ctrls1_0.actPowerDownEnergy   711536677200                       # Energy for active power-down per rank (pJ)
system.mem_ctrls1_0.prePowerDownEnergy   142992563520                       # Energy for precharge power-down per rank (pJ)
system.mem_ctrls1_0.selfRefreshEnergy     58119603105                       # Energy for self refresh per rank (pJ)
system.mem_ctrls1_0.totalEnergy          1244500139115                       # Total energy per rank (pJ)
system.mem_ctrls1_0.averagePower           522.689904                       # Core power per rank (mW)
system.mem_ctrls1_0.totalIdleTime        2128505991745                       # Total Idle time Per DRAM Rank
system.mem_ctrls1_0.memoryStateTime::IDLE   7053243668                       # Time in different power states
system.mem_ctrls1_0.memoryStateTime::REF  77962534000                       # Time in different power states
system.mem_ctrls1_0.memoryStateTime::SREF 195732022843                       # Time in different power states
system.mem_ctrls1_0.memoryStateTime::PRE_PDN 372375992535                       # Time in different power states
system.mem_ctrls1_0.memoryStateTime::ACT 167431154318                       # Time in different power states
system.mem_ctrls1_0.memoryStateTime::ACT_PDN 1560398110242                       # Time in different power states
system.mem_ctrls1_1.actEnergy              9637843320                       # Energy for activate commands per rank (pJ)
system.mem_ctrls1_1.preEnergy              5122623825                       # Energy for precharge commands per rank (pJ)
system.mem_ctrls1_1.readEnergy            15165831240                       # Energy for read commands per rank (pJ)
system.mem_ctrls1_1.writeEnergy            3531350880                       # Energy for write commands per rank (pJ)
system.mem_ctrls1_1.refreshEnergy        183286877280.000031                       # Energy for refresh commands per rank (pJ)
system.mem_ctrls1_1.actBackEnergy        107395086810                       # Energy for active background per rank (pJ)
system.mem_ctrls1_1.preBackEnergy          6574410240                       # Energy for precharge background per rank (pJ)
system.mem_ctrls1_1.actPowerDownEnergy   703499956500                       # Energy for active power-down per rank (pJ)
system.mem_ctrls1_1.prePowerDownEnergy   144337760160                       # Energy for precharge power-down per rank (pJ)
system.mem_ctrls1_1.selfRefreshEnergy     61803474600                       # Energy for self refresh per rank (pJ)
system.mem_ctrls1_1.totalEnergy          1240396415925                       # Total energy per rank (pJ)
system.mem_ctrls1_1.averagePower           520.966342                       # Core power per rank (mW)
system.mem_ctrls1_1.totalIdleTime        2128230078209                       # Total Idle time Per DRAM Rank
system.mem_ctrls1_1.memoryStateTime::IDLE   7231383205                       # Time in different power states
system.mem_ctrls1_1.memoryStateTime::REF  77661634000                       # Time in different power states
system.mem_ctrls1_1.memoryStateTime::SREF 209582283777                       # Time in different power states
system.mem_ctrls1_1.memoryStateTime::PRE_PDN 375876418515                       # Time in different power states
system.mem_ctrls1_1.memoryStateTime::ACT 167829538724                       # Time in different power states
system.mem_ctrls1_1.memoryStateTime::ACT_PDN 1542771799385                       # Time in different power states
system.pwrStateResidencyTicks::UNDEFINED 75651106858308                       # Cumulative time (in ticks) in various power states
system.cpu.branchPred.lookups                       2                       # Number of BP lookups
system.cpu.branchPred.condPredicted                 2                       # Number of conditional branches predicted
system.cpu.branchPred.condIncorrect                 1                       # Number of conditional branches incorrect
system.cpu.branchPred.BTBLookups                    0                       # Number of BTB lookups
system.cpu.branchPred.BTBHits                       0                       # Number of BTB hits
system.cpu.branchPred.BTBCorrect                    0                       # Number of correct BTB predictions (this stat may not work properly.
system.cpu.branchPred.BTBHitPct                   nan                       # BTB Hit Percentage
system.cpu.branchPred.usedRAS                       0                       # Number of times the RAS was used to get a target.
system.cpu.branchPred.RASInCorrect                  0                       # Number of incorrect RAS predictions.
system.cpu.branchPred.indirectLookups               0                       # Number of indirect predictor lookups.
system.cpu.branchPred.indirectHits                  0                       # Number of indirect target hits.
system.cpu.branchPred.indirectMisses                0                       # Number of indirect misses.
system.cpu.branchPredindirectMispredicted            0                       # Number of mispredicted indirect branches.
system.cpu_voltage_domain.voltage                   1                       # Voltage in Volts
system.cpu_clk_domain.clock                       333                       # Clock period in ticks
system.cpu.dtb.fetch_hits                           0                       # ITB hits
system.cpu.dtb.fetch_misses                         0                       # ITB misses
system.cpu.dtb.fetch_acv                            0                       # ITB acv
system.cpu.dtb.fetch_accesses                       0                       # ITB accesses
system.cpu.dtb.read_hits                           28                       # DTB read hits
system.cpu.dtb.read_misses                          0                       # DTB read misses
system.cpu.dtb.read_acv                             0                       # DTB read access violations
system.cpu.dtb.read_accesses                       28                       # DTB read accesses
system.cpu.dtb.write_hits                           3                       # DTB write hits
system.cpu.dtb.write_misses                         0                       # DTB write misses
system.cpu.dtb.write_acv                            0                       # DTB write access violations
system.cpu.dtb.write_accesses                       3                       # DTB write accesses
system.cpu.dtb.data_hits                           31                       # DTB hits
system.cpu.dtb.data_misses                          0                       # DTB misses
system.cpu.dtb.data_acv                             0                       # DTB access violations
system.cpu.dtb.data_accesses                       31                       # DTB accesses
system.cpu.itb.fetch_hits                           7                       # ITB hits
system.cpu.itb.fetch_misses                         0                       # ITB misses
system.cpu.itb.fetch_acv                            0                       # ITB acv
system.cpu.itb.fetch_accesses                       7                       # ITB accesses
system.cpu.itb.read_hits                            0                       # DTB read hits
system.cpu.itb.read_misses                          0                       # DTB read misses
system.cpu.itb.read_acv                             0                       # DTB read access violations
system.cpu.itb.read_accesses                        0                       # DTB read accesses
system.cpu.itb.write_hits                           0                       # DTB write hits
system.cpu.itb.write_misses                         0                       # DTB write misses
system.cpu.itb.write_acv                            0                       # DTB write access violations
system.cpu.itb.write_accesses                       0                       # DTB write accesses
system.cpu.itb.data_hits                            0                       # DTB hits
system.cpu.itb.data_misses                          0                       # DTB misses
system.cpu.itb.data_acv                             0                       # DTB access violations
system.cpu.itb.data_accesses                        0                       # DTB accesses
system.cpu.workload.num_syscalls                    0                       # Number of system calls
system.cpu.pwrStateResidencyTicks::ON    2380953057606                       # Cumulative time (in ticks) in various power states
system.cpu.numCycles                             1461                       # number of cpu cycles simulated
system.cpu.numWorkItemsStarted                      0                       # number of work items this cpu started
system.cpu.numWorkItemsCompleted                    0                       # number of work items this cpu completed
system.cpu.fetch.icacheStallCycles                 55                       # Number of cycles fetch is stalled on an Icache miss
system.cpu.fetch.Insts                             51                       # Number of instructions fetch has processed
system.cpu.fetch.Branches                           2                       # Number of branches that fetch encountered
system.cpu.fetch.Cycles                             7                       # Number of cycles fetch has run and was not squashing or blocked
system.cpu.fetch.SquashCycles                       5                       # Number of cycles fetch has spent squashing
system.cpu.fetch.PendingDrainCycles                10                       # Number of cycles fetch has spent waiting on pipes to drain
system.cpu.fetch.CacheLines                         7                       # Number of cache lines fetched
system.cpu.fetch.IcacheSquashes                     3                       # Number of outstanding Icache misses that were squashed
system.cpu.fetch.rateDist::samples                 74                       # Number of instructions fetched each cycle (Total)
system.cpu.fetch.rateDist::mean              0.689189                       # Number of instructions fetched each cycle (Total)
system.cpu.fetch.rateDist::stdev             2.189174                       # Number of instructions fetched each cycle (Total)
system.cpu.fetch.rateDist::underflows               0      0.00%      0.00% # Number of instructions fetched each cycle (Total)
system.cpu.fetch.rateDist::0                       67     90.54%     90.54% # Number of instructions fetched each cycle (Total)
system.cpu.fetch.rateDist::1                        0      0.00%     90.54% # Number of instructions fetched each cycle (Total)
system.cpu.fetch.rateDist::2                        0      0.00%     90.54% # Number of instructions fetched each cycle (Total)
[...]
system.switch_cpus_1.iq.int_inst_queue_writes    142182577                       # Number of integer instruction queue writes
system.switch_cpus_1.iq.int_inst_queue_wakeup_accesses    140180776                       # Number of integer instruction queue wakeup accesses
system.switch_cpus_1.iq.fp_inst_queue_reads    151647007                       # Number of floating instruction queue reads
system.switch_cpus_1.iq.fp_inst_queue_writes     62653049                       # Number of floating instruction queue writes
system.switch_cpus_1.iq.fp_inst_queue_wakeup_accesses     61349227                       # Number of floating instruction queue wakeup accesses
system.switch_cpus_1.iq.int_alu_accesses    154402417                       # Number of integer alu accesses
system.switch_cpus_1.iq.fp_alu_accesses      81652607                       # Number of floating point alu accesses
system.switch_cpus_1.iew.lsq.thread0.forwLoads      1446340                       # Number of loads that had data forwarded from stores
system.switch_cpus_1.iew.lsq.thread0.invAddrLoads            0                       # Number of loads ignored due to an invalid address
system.switch_cpus_1.iew.lsq.thread0.squashedLoads       802751                       # Number of loads squashed
system.switch_cpus_1.iew.lsq.thread0.ignoredResponses            0                       # Number of memory responses ignored because the instruction is squashed
system.switch_cpus_1.iew.lsq.thread0.memOrderViolation          361                       # Number of memory ordering violations
system.switch_cpus_1.iew.lsq.thread0.squashedStores       151668                       # Number of stores squashed
system.switch_cpus_1.iew.lsq.thread0.invAddrSwpfs            0                       # Number of software prefetches ignored due to an invalid address
system.switch_cpus_1.iew.lsq.thread0.blockedLoads            0                       # Number of blocked loads due to partial load-store forwarding
system.switch_cpus_1.iew.lsq.thread0.rescheduledLoads            0                       # Number of loads that were rescheduled
system.switch_cpus_1.iew.lsq.thread0.cacheBlocked     12534596                       # Number of times an access to memory failed due to the cache being blocked
system.switch_cpus_1.iew.iewIdleCycles              0                       # Number of cycles IEW is idle
system.switch_cpus_1.iew.iewSquashCycles        63516                       # Number of cycles IEW is squashing
system.switch_cpus_1.iew.iewBlockCycles      42243314                       # Number of cycles IEW is blocking
system.switch_cpus_1.iew.iewUnblockCycles     45661116                       # Number of cycles IEW is unblocking
system.switch_cpus_1.iew.iewDispatchedInsts    202485553                       # Number of instructions dispatched to IQ
system.switch_cpus_1.iew.iewDispSquashedInsts        65687                       # Number of squashed instructions skipped by dispatch
system.switch_cpus_1.iew.iewDispLoadInsts     68397150                       # Number of dispatched load instructions
system.switch_cpus_1.iew.iewDispStoreInsts     10464149                       # Number of dispatched store instructions
system.switch_cpus_1.iew.iewDispNonSpecInsts           86                       # Number of dispatched non-speculative instructions
system.switch_cpus_1.iew.iewIQFullEvents       255979                       # Number of times the IQ has become full, causing a stall
system.switch_cpus_1.iew.iewLSQFullEvents     45144507                       # Number of times the LSQ has become full, causing a stall
system.switch_cpus_1.iew.memOrderViolationEvents          361                       # Number of memory order violations
system.switch_cpus_1.iew.predictedTakenIncorrect        47763                       # Number of branches that were predicted taken incorrectly
system.switch_cpus_1.iew.predictedNotTakenIncorrect          434                       # Number of branches that were predicted not taken incorrectly
system.switch_cpus_1.iew.branchMispredicts        48197                       # Number of branch mispredicts detected at execute
system.switch_cpus_1.iew.iewExecutedInsts    213943355                       # Number of executed instructions
system.switch_cpus_1.iew.iewExecLoadInsts     80439111                       # Number of load instructions executed
system.switch_cpus_1.iew.iewExecSquashedInsts       112818                       # Number of squashed instructions skipped in execute
system.switch_cpus_1.iew.exec_swp                   0                       # number of swp insts executed
system.switch_cpus_1.iew.exec_nop               67877                       # number of nop insts executed
system.switch_cpus_1.iew.exec_refs           90794152                       # number of memory reference insts executed
system.switch_cpus_1.iew.exec_branches        5550207                       # Number of branches executed
system.switch_cpus_1.iew.exec_stores         10355041                       # Number of stores executed
system.switch_cpus_1.iew.exec_rate           0.578311                       # Inst execution rate
system.switch_cpus_1.iew.wb_sent            201664996                       # cumulative count of insts sent to commit
system.switch_cpus_1.iew.wb_count           201530003                       # cumulative count of insts written-back
system.switch_cpus_1.iew.wb_producers       139449737                       # num instructions producing a value
system.switch_cpus_1.iew.wb_consumers       153104629                       # num instructions consuming a value
system.switch_cpus_1.iew.wb_rate             0.544757                       # insts written-back per cycle
system.switch_cpus_1.iew.wb_fanout           0.910813                       # average fanout of values written-back
system.switch_cpus_1.commit.commitSquashedInsts      2363322                       # The number of squashed insts skipped by commit
system.switch_cpus_1.commit.commitNonSpecStalls          144                       # The number of times commit has been forced to stall to communicate backwards
system.switch_cpus_1.commit.branchMispredicts        47877                       # The number of times a branch was mispredicted
system.switch_cpus_1.commit.committed_per_cycle::samples    369605771                       # Number of insts commited each cycle
system.switch_cpus_1.commit.committed_per_cycle::mean     0.541276                       # Number of insts commited each cycle
system.switch_cpus_1.commit.committed_per_cycle::stdev     1.884463                       # Number of insts commited each cycle
system.switch_cpus_1.commit.committed_per_cycle::underflows            0      0.00%      0.00% # Number of insts commited each cycle
system.switch_cpus_1.commit.committed_per_cycle::0    333730992     90.29%     90.29% # Number of insts commited each cycle
system.switch_cpus_1.commit.committed_per_cycle::1      7487710      2.03%     92.32% # Number of insts commited each cycle
system.switch_cpus_1.commit.committed_per_cycle::2      1489066      0.40%     92.72% # Number of insts commited each cycle
system.switch_cpus_1.commit.committed_per_cycle::3      1594192      0.43%     93.15% # Number of insts commited each cycle
system.switch_cpus_1.commit.committed_per_cycle::4      2183185      0.59%     93.74% # Number of insts commited each cycle
system.switch_cpus_1.commit.committed_per_cycle::5      1507763      0.41%     94.15% # Number of insts commited each cycle
system.switch_cpus_1.commit.committed_per_cycle::6      1327090      0.36%     94.51% # Number of insts commited each cycle
system.switch_cpus_1.commit.committed_per_cycle::7      1710026      0.46%     94.97% # Number of insts commited each cycle
system.switch_cpus_1.commit.committed_per_cycle::8     18575747      5.03%    100.00% # Number of insts commited each cycle
system.switch_cpus_1.commit.committed_per_cycle::overflows            0      0.00%    100.00% # Number of insts commited each cycle
system.switch_cpus_1.commit.committed_per_cycle::min_value            0                       # Number of insts commited each cycle
system.switch_cpus_1.commit.committed_per_cycle::max_value            8                       # Number of insts commited each cycle
system.switch_cpus_1.commit.committed_per_cycle::total    369605771                       # Number of insts commited each cycle
system.switch_cpus_1.commit.committedInsts    200058671                       # Number of instructions committed
system.switch_cpus_1.commit.committedOps    200058671                       # Number of ops (including micro ops) committed
system.switch_cpus_1.commit.swp_count               0                       # Number of s/w prefetches committed
system.switch_cpus_1.commit.refs             77906848                       # Number of memory references committed
system.switch_cpus_1.commit.loads            67594371                       # Number of loads committed
system.switch_cpus_1.commit.membars                72                       # Number of memory barriers committed
system.switch_cpus_1.commit.branches          5447366                       # Number of branches committed
system.switch_cpus_1.commit.fp_insts         61032861                       # Number of committed floating point instructions.
system.switch_cpus_1.commit.int_insts       169602469                       # Number of committed integer instructions.
system.switch_cpus_1.commit.function_calls           74                       # Number of function calls committed.
system.switch_cpus_1.commit.op_class_0::No_OpClass        58667      0.03%      0.03% # Class of committed instruction
system.switch_cpus_1.commit.op_class_0::IntAlu     69024585     34.50%     34.53% # Class of committed instruction
system.switch_cpus_1.commit.op_class_0::IntMult     22692429     11.34%     45.87% # Class of committed instruction
system.switch_cpus_1.commit.op_class_0::IntDiv            0      0.00%     45.87% # Class of committed instruction
system.switch_cpus_1.commit.op_class_0::FloatAdd     15421069      7.71%     53.58% # Class of committed instruction
system.switch_cpus_1.commit.op_class_0::FloatCmp            0      0.00%     53.58% # Class of committed instruction
system.switch_cpus_1.commit.op_class_0::FloatCvt         3010      0.00%     53.58% # Class of committed instruction
system.switch_cpus_1.commit.op_class_0::FloatMult     13619855      6.81%     60.39% # Class of committed instruction
system.switch_cpus_1.commit.op_class_0::FloatMultAcc            0      0.00%     60.39% # Class of committed instruction
system.switch_cpus_1.commit.op_class_0::FloatDiv      1151536      0.58%     60.97% # Class of committed instruction
system.switch_cpus_1.commit.op_class_0::FloatMisc            0      0.00%     60.97% # Class of committed instruction
system.switch_cpus_1.commit.op_class_0::FloatSqrt       180600      0.09%     61.06% # Class of committed instruction
system.switch_cpus_1.commit.op_class_0::SimdAdd            0      0.00%     61.06% # Class of committed instruction
system.switch_cpus_1.commit.op_class_0::SimdAddAcc            0      0.00%     61.06% # Class of committed instruction
system.switch_cpus_1.commit.op_class_0::SimdAlu            0      0.00%     61.06% # Class of committed instruction
system.switch_cpus_1.commit.op_class_0::SimdCmp            0      0.00%     61.06% # Class of committed instruction
system.switch_cpus_1.commit.op_class_0::SimdCvt            0      0.00%     61.06% # Class of committed instruction
system.switch_cpus_1.commit.op_class_0::SimdMisc            0      0.00%     61.06% # Class of committed instruction
system.switch_cpus_1.commit.op_class_0::SimdMult            0      0.00%     61.06% # Class of committed instruction
system.switch_cpus_1.commit.op_class_0::SimdMultAcc            0      0.00%     61.06% # Class of committed instruction
system.switch_cpus_1.commit.op_class_0::SimdShift            0      0.00%     61.06% # Class of committed instruction
system.switch_cpus_1.commit.op_class_0::SimdShiftAcc            0      0.00%     61.06% # Class of committed instruction
system.switch_cpus_1.commit.op_class_0::SimdSqrt            0      0.00%     61.06% # Class of committed instruction
system.switch_cpus_1.commit.op_class_0::SimdFloatAdd            0      0.00%     61.06% # Class of committed instruction
system.switch_cpus_1.commit.op_class_0::SimdFloatAlu            0      0.00%     61.06% # Class of committed instruction
system.switch_cpus_1.commit.op_class_0::SimdFloatCmp            0      0.00%     61.06% # Class of committed instruction
system.switch_cpus_1.commit.op_class_0::SimdFloatCvt            0      0.00%     61.06% # Class of committed instruction
system.switch_cpus_1.commit.op_class_0::SimdFloatDiv            0      0.00%     61.06% # Class of committed instruction
system.switch_cpus_1.commit.op_class_0::SimdFloatMisc            0      0.00%     61.06% # Class of committed instruction
system.switch_cpus_1.commit.op_class_0::SimdFloatMult            0      0.00%     61.06% # Class of committed instruction
system.switch_cpus_1.commit.op_class_0::SimdFloatMultAcc            0      0.00%     61.06% # Class of committed instruction
system.switch_cpus_1.commit.op_class_0::SimdFloatSqrt            0      0.00%     61.06% # Class of committed instruction
system.switch_cpus_1.commit.op_class_0::MemRead     44149715     22.07%     83.13% # Class of committed instruction
system.switch_cpus_1.commit.op_class_0::MemWrite      3100414      1.55%     84.68% # Class of committed instruction
system.switch_cpus_1.commit.op_class_0::FloatMemRead     23444728     11.72%     96.40% # Class of committed instruction
system.switch_cpus_1.commit.op_class_0::FloatMemWrite      7212063      3.60%    100.00% # Class of committed instruction
system.switch_cpus_1.commit.op_class_0::IprAccess            0      0.00%    100.00% # Class of committed instruction
system.switch_cpus_1.commit.op_class_0::InstPrefetch            0      0.00%    100.00% # Class of committed instruction
system.switch_cpus_1.commit.op_class_0::total    200058671                       # Class of committed instruction
system.switch_cpus_1.commit.bw_lim_events     18575747                       # number cycles where commit BW limit reached
system.switch_cpus_1.rob.rob_reads          553252844                       # The number of ROB reads
system.switch_cpus_1.rob.rob_writes         405163739                       # The number of ROB writes
system.switch_cpus_1.timesIdled                   113                       # Number of times that the entire CPU went into an idle state and unscheduled itself
system.switch_cpus_1.idleCycles                 19510                       # Total number of cycles that the CPU has spent unscheduled due to idling
system.switch_cpus_1.committedInsts         200000004                       # Number of Instructions Simulated
system.switch_cpus_1.committedOps           200000004                       # Number of Ops (including micro ops) Simulated
system.switch_cpus_1.cpi                     1.849725                       # CPI: Cycles Per Instruction
system.switch_cpus_1.cpi_total               1.849725                       # CPI: Total CPI of All Threads
system.switch_cpus_1.ipc                     0.540621                       # IPC: Instructions Per Cycle
system.switch_cpus_1.ipc_total               0.540621                       # IPC: Total IPC of All Threads
system.switch_cpus_1.int_regfile_reads      260478187                       # number of integer regfile reads
system.switch_cpus_1.int_regfile_writes     131552030                       # number of integer regfile writes
system.switch_cpus_1.fp_regfile_reads        68055817                       # number of floating regfile reads
system.switch_cpus_1.fp_regfile_writes       54127454                       # number of floating regfile writes
system.switch_cpus_1.misc_regfile_reads           162                       # number of misc regfile reads
system.switch_cpus_1.misc_regfile_writes          144                       # number of misc regfile writes
system.tol3bus.snoop_filter.tot_requests     21501564                       # Total number of requests made to the snoop filter.
system.tol3bus.snoop_filter.hit_single_requests     10748475                       # Number of requests hitting in the snoop filter with a single holder of the requested data.
system.tol3bus.snoop_filter.hit_multi_requests            0                       # Number of requests hitting in the snoop filter with multiple (>1) holders of the requested data.
system.tol3bus.snoop_filter.tot_snoops          63553                       # Total number of snoops made to the snoop filter.
system.tol3bus.snoop_filter.hit_single_snoops        63553                       # Number of snoops hitting in the snoop filter with a single holder of the requested data.
system.tol3bus.snoop_filter.hit_multi_snoops            0                       # Number of snoops hitting in the snoop filter with multiple (>1) holders of the requested data.
system.tol3bus.pwrStateResidencyTicks::UNDEFINED 75651106858308                       # Cumulative time (in ticks) in various power states
system.tol3bus.trans_dist::ReadResp           8306217                       # Transaction distribution
system.tol3bus.trans_dist::WritebackDirty      6020014                       # Transaction distribution
system.tol3bus.trans_dist::CleanEvict        13215096                       # Transaction distribution
system.tol3bus.trans_dist::ReadExReq          2446872                       # Transaction distribution
system.tol3bus.trans_dist::ReadExResp         2446870                       # Transaction distribution
system.tol3bus.trans_dist::ReadSharedReq      8306217                       # Transaction distribution
system.tol3bus.pkt_count_system.cpu.l2.mem_side::system.l3.cpu_side     32254651                       # Packet count per connected master and slave (bytes)
system.tol3bus.pkt_size_system.cpu.l2.mem_side::system.l3.cpu_side    898246720                       # Cumulative packet size per connected master and slave (bytes)
system.tol3bus.snoops                         8486635                       # Total snoops (count)
system.tol3bus.snoopTraffic                 175231744                       # Total snoop traffic (bytes)
system.tol3bus.snoop_fanout::samples         19239724                       # Request fanout histogram
system.tol3bus.snoop_fanout::mean            0.003303                       # Request fanout histogram
system.tol3bus.snoop_fanout::stdev           0.057379                       # Request fanout histogram
system.tol3bus.snoop_fanout::underflows             0      0.00%      0.00% # Request fanout histogram
system.tol3bus.snoop_fanout::0               19176171     99.67%     99.67% # Request fanout histogram
system.tol3bus.snoop_fanout::1                  63553      0.33%    100.00% # Request fanout histogram
system.tol3bus.snoop_fanout::overflows              0      0.00%    100.00% # Request fanout histogram
system.tol3bus.snoop_fanout::min_value              0                       # Request fanout histogram
system.tol3bus.snoop_fanout::max_value              1                       # Request fanout histogram
system.tol3bus.snoop_fanout::total           19239724                       # Request fanout histogram
system.tol3bus.reqLayer0.occupancy         8252932806                       # Layer occupancy (ticks)
system.tol3bus.reqLayer0.utilization              0.3                       # Layer utilization (%)
system.tol3bus.respLayer0.occupancy        7161555942                       # Layer occupancy (ticks)
system.tol3bus.respLayer0.utilization             0.3                       # Layer utilization (%)

---------- End Simulation Statistics   ----------
