
---------- Begin Simulation Statistics ----------
sim_seconds                                  2.926539                       # Number of seconds simulated
sim_ticks                                2926538642223                       # Number of ticks simulated
final_tick                               72956511223569                       # Number of ticks from beginning of simulation (restored from checkpoints and never reset)
sim_freq                                 1000000000000                       # Frequency of simulated ticks
host_inst_rate                                 181625                       # Simulator instruction rate (inst/s)
host_op_rate                                   181625                       # Simulator op (including micro ops) rate (op/s)
host_tick_rate                              442943542                       # Simulator tick rate (ticks/s)
host_mem_usage                                2504212                       # Number of bytes of host memory used
host_seconds                                  6607.02                       # Real time elapsed on the host
sim_insts                                  1200000011                       # Number of instructions simulated
sim_ops                                    1200000011                       # Number of ops (including micro ops) simulated
system.voltage_domain.voltage                       1                       # Voltage in Volts
system.clk_domain.clock                          1000                       # Clock period in ticks
system.mem_ctrls0.pwrStateResidencyTicks::UNDEFINED 72956511223569                       # Cumulative time (in ticks) in various power states
system.mem_ctrls0.bytes_read::cpu.inst             64                       # Number of bytes read from this memory
system.mem_ctrls0.bytes_read::cpu.data            128                       # Number of bytes read from this memory
system.mem_ctrls0.bytes_read::switch_cpus.inst       128448                       # Number of bytes read from this memory
system.mem_ctrls0.bytes_read::switch_cpus.data    407034176                       # Number of bytes read from this memory
system.mem_ctrls0.bytes_read::switch_cpus_1.inst        35648                       # Number of bytes read from this memory
system.mem_ctrls0.bytes_read::switch_cpus_1.data     87168320                       # Number of bytes read from this memory
system.mem_ctrls0.bytes_read::total         494366784                       # Number of bytes read from this memory
system.mem_ctrls0.bytes_inst_read::cpu.inst           64                       # Number of instructions bytes read from this memory
system.mem_ctrls0.bytes_inst_read::switch_cpus.inst       128448                       # Number of instructions bytes read from this memory
system.mem_ctrls0.bytes_inst_read::switch_cpus_1.inst        35648                       # Number of instructions bytes read from this memory
system.mem_ctrls0.bytes_inst_read::total       164160                       # Number of instructions bytes read from this memory
system.mem_ctrls0.bytes_written::writebacks    165622976                       # Number of bytes written to this memory
system.mem_ctrls0.bytes_written::total      165622976                       # Number of bytes written to this memory
system.mem_ctrls0.num_reads::cpu.inst               1                       # Number of read requests responded to by this memory
system.mem_ctrls0.num_reads::cpu.data               2                       # Number of read requests responded to by this memory
system.mem_ctrls0.num_reads::switch_cpus.inst         2007                       # Number of read requests responded to by this memory
system.mem_ctrls0.num_reads::switch_cpus.data      6359909                       # Number of read requests responded to by this memory
system.mem_ctrls0.num_reads::switch_cpus_1.inst          557                       # Number of read requests responded to by this memory
system.mem_ctrls0.num_reads::switch_cpus_1.data      1362005                       # Number of read requests responded to by this memory
system.mem_ctrls0.num_reads::total            7724481                       # Number of read requests responded to by this memory
system.mem_ctrls0.num_writes::writebacks      2587859                       # Number of write requests responded to by this memory
system.mem_ctrls0.num_writes::total           2587859                       # Number of write requests responded to by this memory
system.mem_ctrls0.bw_read::cpu.inst                22                       # Total read bandwidth from this memory (bytes/s)
system.mem_ctrls0.bw_read::cpu.data                44                       # Total read bandwidth from this memory (bytes/s)
system.mem_ctrls0.bw_read::switch_cpus.inst        43891                       # Total read bandwidth from this memory (bytes/s)
system.mem_ctrls0.bw_read::switch_cpus.data    139083821                       # Total read bandwidth from this memory (bytes/s)
system.mem_ctrls0.bw_read::switch_cpus_1.inst        12181                       # Total read bandwidth from this memory (bytes/s)
system.mem_ctrls0.bw_read::switch_cpus_1.data     29785467                       # Total read bandwidth from this memory (bytes/s)
system.mem_ctrls0.bw_read::total            168925425                       # Total read bandwidth from this memory (bytes/s)
system.mem_ctrls0.bw_inst_read::cpu.inst           22                       # Instruction read bandwidth from this memory (bytes/s)
system.mem_ctrls0.bw_inst_read::switch_cpus.inst        43891                       # Instruction read bandwidth from this memory (bytes/s)
system.mem_ctrls0.bw_inst_read::switch_cpus_1.inst        12181                       # Instruction read bandwidth from this memory (bytes/s)
system.mem_ctrls0.bw_inst_read::total           56094                       # Instruction read bandwidth from this memory (bytes/s)
system.mem_ctrls0.bw_write::writebacks       56593470                       # Write bandwidth from this memory (bytes/s)
system.mem_ctrls0.bw_write::total            56593470                       # Write bandwidth from this memory (bytes/s)
system.mem_ctrls0.bw_total::writebacks       56593470                       # Total bandwidth to/from this memory (bytes/s)
system.mem_ctrls0.bw_total::cpu.inst               22                       # Total bandwidth to/from this memory (bytes/s)
system.mem_ctrls0.bw_total::cpu.data               44                       # Total bandwidth to/from this memory (bytes/s)
system.mem_ctrls0.bw_total::switch_cpus.inst        43891                       # Total bandwidth to/from this memory (bytes/s)
system.mem_ctrls0.bw_total::switch_cpus.data    139083821                       # Total bandwidth to/from this memory (bytes/s)
system.mem_ctrls0.bw_total::switch_cpus_1.inst        12181                       # Total bandwidth to/from this memory (bytes/s)
system.mem_ctrls0.bw_total::switch_cpus_1.data     29785467                       # Total bandwidth to/from this memory (bytes/s)
system.mem_ctrls0.bw_total::total           225518895                       # Total bandwidth to/from this memory (bytes/s)
system.mem_ctrls0.readReqs                    7724481                       # Number of read requests accepted
system.mem_ctrls0.writeReqs                   2587859                       # Number of write requests accepted
system.mem_ctrls0.readBursts                  7724481                       # Number of DRAM read bursts, including those serviced by the write queue
system.mem_ctrls0.writeBursts                 2587859                       # Number of DRAM write bursts, including those merged in the write queue
system.mem_ctrls0.bytesReadDRAM             493908672                       # Total number of bytes read from DRAM
system.mem_ctrls0.bytesReadWrQ                 458112                       # Total number of bytes read from write queue
system.mem_ctrls0.bytesWritten              165621184                       # Total number of bytes written to DRAM
system.mem_ctrls0.bytesReadSys              494366784                       # Total read bytes from the system interface side
system.mem_ctrls0.bytesWrittenSys           165622976                       # Total written bytes from the system interface side
system.mem_ctrls0.servicedByWrQ                  7158                       # Number of DRAM read bursts serviced by the write queue
system.mem_ctrls0.mergedWrBursts                    0                       # Number of DRAM write bursts merged with an existing one
system.mem_ctrls0.neitherReadNorWriteReqs            0                       # Number of requests that are neither read nor write
system.mem_ctrls0.perBankRdBursts::0           504948                       # Per bank write bursts
system.mem_ctrls0.perBankRdBursts::1           492052                       # Per bank write bursts
system.mem_ctrls0.perBankRdBursts::2           483790                       # Per bank write bursts
system.mem_ctrls0.perBankRdBursts::3           484419                       # Per bank write bursts
system.mem_ctrls0.perBankRdBursts::4           481947                       # Per bank write bursts
system.mem_ctrls0.perBankRdBursts::5           494697                       # Per bank write bursts
system.mem_ctrls0.perBankRdBursts::6           472401                       # Per bank write bursts
system.mem_ctrls0.perBankRdBursts::7           483388                       # Per bank write bursts
system.mem_ctrls0.perBankRdBursts::8           487060                       # Per bank write bursts
system.mem_ctrls0.perBankRdBursts::9           477962                       # Per bank write bursts
system.mem_ctrls0.perBankRdBursts::10          473258                       # Per bank write bursts
system.mem_ctrls0.perBankRdBursts::11          479486                       # Per bank write bursts
system.mem_ctrls0.perBankRdBursts::12          469323                       # Per bank write bursts
system.mem_ctrls0.perBankRdBursts::13          466648                       # Per bank write bursts
system.mem_ctrls0.perBankRdBursts::14          474997                       # Per bank write bursts
system.mem_ctrls0.perBankRdBursts::15          490947                       # Per bank write bursts
system.mem_ctrls0.perBankWrBursts::0           170714                       # Per bank write bursts
system.mem_ctrls0.perBankWrBursts::1           161713                       # Per bank write bursts
system.mem_ctrls0.perBankWrBursts::2           165260                       # Per bank write bursts
system.mem_ctrls0.perBankWrBursts::3           163313                       # Per bank write bursts
system.mem_ctrls0.perBankWrBursts::4           161324                       # Per bank write bursts
system.mem_ctrls0.perBankWrBursts::5           162429                       # Per bank write bursts
system.mem_ctrls0.perBankWrBursts::6           157782                       # Per bank write bursts
system.mem_ctrls0.perBankWrBursts::7           159454                       # Per bank write bursts
system.mem_ctrls0.perBankWrBursts::8           158646                       # Per bank write bursts
system.mem_ctrls0.perBankWrBursts::9           156040                       # Per bank write bursts
system.mem_ctrls0.perBankWrBursts::10          156139                       # Per bank write bursts
system.mem_ctrls0.perBankWrBursts::11          155955                       # Per bank write bursts
system.mem_ctrls0.perBankWrBursts::12          153936                       # Per bank write bursts
system.mem_ctrls0.perBankWrBursts::13          161542                       # Per bank write bursts
system.mem_ctrls0.perBankWrBursts::14          169418                       # Per bank write bursts
system.mem_ctrls0.perBankWrBursts::15          174166                       # Per bank write bursts
system.mem_ctrls0.numRdRetry                        0                       # Number of times read queue was full causing retry
system.mem_ctrls0.numWrRetry                        0                       # Number of times write queue was full causing retry
system.mem_ctrls0.totGap                 2926538052813                       # Total gap between requests
system.mem_ctrls0.readPktSize::0                    0                       # Read request sizes (log2)
system.mem_ctrls0.readPktSize::1                    0                       # Read request sizes (log2)
system.mem_ctrls0.readPktSize::2                    0                       # Read request sizes (log2)
system.mem_ctrls0.readPktSize::3                    0                       # Read request sizes (log2)
system.mem_ctrls0.readPktSize::4                    0                       # Read request sizes (log2)
system.mem_ctrls0.readPktSize::5                    0                       # Read request sizes (log2)
system.mem_ctrls0.readPktSize::6              7724481                       # Read request sizes (log2)
system.mem_ctrls0.writePktSize::0                   0                       # Write request sizes (log2)
system.mem_ctrls0.writePktSize::1                   0                       # Write request sizes (log2)
system.mem_ctrls0.writePktSize::2                   0                       # Write request sizes (log2)
system.mem_ctrls0.writePktSize::3                   0                       # Write request sizes (log2)
system.mem_ctrls0.writePktSize::4                   0                       # Write request sizes (log2)
system.mem_ctrls0.writePktSize::5                   0                       # Write request sizes (log2)
system.mem_ctrls0.writePktSize::6             2587859                       # Write request sizes (log2)
system.mem_ctrls0.rdQLenPdf::0                7321744                       # What read queue length does an incoming req see
system.mem_ctrls0.rdQLenPdf::1                 338115                       # What read queue length does an incoming req see
system.mem_ctrls0.rdQLenPdf::2                  52668                       # What read queue length does an incoming req see
system.mem_ctrls0.rdQLenPdf::3                   4796                       # What read queue length does an incoming req see
system.mem_ctrls0.rdQLenPdf::4                      0                       # What read queue length does an incoming req see
system.mem_ctrls0.rdQLenPdf::5                      0                       # What read queue length does an incoming req see
system.mem_ctrls0.rdQLenPdf::6                      0                       # What read queue length does an incoming req see
system.mem_ctrls0.rdQLenPdf::7                      0                       # What read queue length does an incoming req see
system.mem_ctrls0.rdQLenPdf::8                      0                       # What read queue length does an incoming req see
system.mem_ctrls0.rdQLenPdf::9                      0                       # What read queue length does an incoming req see
system.mem_ctrls0.rdQLenPdf::10                     0                       # What read queue length does an incoming req see
system.mem_ctrls0.rdQLenPdf::11                     0                       # What read queue length does an incoming req see
system.mem_ctrls0.rdQLenPdf::12                     0                       # What read queue length does an incoming req see
system.mem_ctrls0.rdQLenPdf::13                     0                       # What read queue length does an incoming req see
system.mem_ctrls0.rdQLenPdf::14                     0                       # What read queue length does an incoming req see
system.mem_ctrls0.rdQLenPdf::15                     0                       # What read queue length does an incoming req see
system.mem_ctrls0.rdQLenPdf::16                     0                       # What read queue length does an incoming req see
system.mem_ctrls0.rdQLenPdf::17                     0                       # What read queue length does an incoming req see
system.mem_ctrls0.rdQLenPdf::18                     0                       # What read queue length does an incoming req see
system.mem_ctrls0.rdQLenPdf::19                     0                       # What read queue length does an incoming req see
system.mem_ctrls0.rdQLenPdf::20                     0                       # What read queue length does an incoming req see
system.mem_ctrls0.rdQLenPdf::21                     0                       # What read queue length does an incoming req see
system.mem_ctrls0.rdQLenPdf::22                     0                       # What read queue length does an incoming req see
system.mem_ctrls0.rdQLenPdf::23                     0                       # What read queue length does an incoming req see
system.mem_ctrls0.rdQLenPdf::24                     0                       # What read queue length does an incoming req see
system.mem_ctrls0.rdQLenPdf::25                     0                       # What read queue length does an incoming req see
system.mem_ctrls0.rdQLenPdf::26                     0                       # What read queue length does an incoming req see
system.mem_ctrls0.rdQLenPdf::27                     0                       # What read queue length does an incoming req see
system.mem_ctrls0.rdQLenPdf::28                     0                       # What read queue length does an incoming req see
system.mem_ctrls0.rdQLenPdf::29                     0                       # What read queue length does an incoming req see
system.mem_ctrls0.rdQLenPdf::30                     0                       # What read queue length does an incoming req see
system.mem_ctrls0.rdQLenPdf::31                     0                       # What read queue length does an incoming req see
system.mem_ctrls0.wrQLenPdf::0                      2                       # What write queue length does an incoming req see
system.mem_ctrls0.wrQLenPdf::1                      2                       # What write queue length does an incoming req see
system.mem_ctrls0.wrQLenPdf::2                      2                       # What write queue length does an incoming req see
system.mem_ctrls0.wrQLenPdf::3                      2                       # What write queue length does an incoming req see
system.mem_ctrls0.wrQLenPdf::4                      2                       # What write queue length does an incoming req see
system.mem_ctrls0.wrQLenPdf::5                      2                       # What write queue length does an incoming req see
system.mem_ctrls0.wrQLenPdf::6                      2                       # What write queue length does an incoming req see
system.mem_ctrls0.wrQLenPdf::7                      2                       # What write queue length does an incoming req see
system.mem_ctrls0.wrQLenPdf::8                      2                       # What write queue length does an incoming req see
system.mem_ctrls0.wrQLenPdf::9                      2                       # What write queue length does an incoming req see
system.mem_ctrls0.wrQLenPdf::10                     2                       # What write queue length does an incoming req see
system.mem_ctrls0.wrQLenPdf::11                     2                       # What write queue length does an incoming req see
system.mem_ctrls0.wrQLenPdf::12                     2                       # What write queue length does an incoming req see
system.mem_ctrls0.wrQLenPdf::13                     2                       # What write queue length does an incoming req see
system.mem_ctrls0.wrQLenPdf::14                     2                       # What write queue length does an incoming req see
system.mem_ctrls0.wrQLenPdf::15                 95457                       # What write queue length does an incoming req see
system.mem_ctrls0.wrQLenPdf::16                100014                       # What write queue length does an incoming req see
system.mem_ctrls0.wrQLenPdf::17                143883                       # What write queue length does an incoming req see
system.mem_ctrls0.wrQLenPdf::18                148831                       # What write queue length does an incoming req see
system.mem_ctrls0.wrQLenPdf::19                149677                       # What write queue length does an incoming req see
system.mem_ctrls0.wrQLenPdf::20                149816                       # What write queue length does an incoming req see
system.mem_ctrls0.wrQLenPdf::21                149827                       # What write queue length does an incoming req see
system.mem_ctrls0.wrQLenPdf::22                149986                       # What write queue length does an incoming req see
system.mem_ctrls0.wrQLenPdf::23                150073                       # What write queue length does an incoming req see
system.mem_ctrls0.wrQLenPdf::24                150166                       # What write queue length does an incoming req see
system.mem_ctrls0.wrQLenPdf::25                151600                       # What write queue length does an incoming req see
system.mem_ctrls0.wrQLenPdf::26                150570                       # What write queue length does an incoming req see
system.mem_ctrls0.wrQLenPdf::27                149863                       # What write queue length does an incoming req see
system.mem_ctrls0.wrQLenPdf::28                149878                       # What write queue length does an incoming req see
system.mem_ctrls0.wrQLenPdf::29                149959                       # What write queue length does an incoming req see
system.mem_ctrls0.wrQLenPdf::30                150055                       # What write queue length does an incoming req see
system.mem_ctrls0.wrQLenPdf::31                149031                       # What write queue length does an incoming req see
system.mem_ctrls0.wrQLenPdf::32                148958                       # What write queue length does an incoming req see
system.mem_ctrls0.wrQLenPdf::33                   138                       # What write queue length does an incoming req see
system.mem_ctrls0.wrQLenPdf::34                    35                       # What write queue length does an incoming req see
system.mem_ctrls0.wrQLenPdf::35                    10                       # What write queue length does an incoming req see
system.mem_ctrls0.wrQLenPdf::36                     1                       # What write queue length does an incoming req see
system.mem_ctrls0.wrQLenPdf::37                     1                       # What write queue length does an incoming req see
system.mem_ctrls0.wrQLenPdf::38                     0                       # What write queue length does an incoming req see
system.mem_ctrls0.wrQLenPdf::39                     0                       # What write queue length does an incoming req see
system.mem_ctrls0.wrQLenPdf::40                     0                       # What write queue length does an incoming req see
system.mem_ctrls0.wrQLenPdf::41                     0                       # What write queue length does an incoming req see
system.mem_ctrls0.wrQLenPdf::42                     0                       # What write queue length does an incoming req see
system.mem_ctrls0.wrQLenPdf::43                     0                       # What write queue length does an incoming req see
system.mem_ctrls0.wrQLenPdf::44                     0                       # What write queue length does an incoming req see
system.mem_ctrls0.wrQLenPdf::45                     0                       # What write queue length does an incoming req see
system.mem_ctrls0.wrQLenPdf::46                     0                       # What write queue length does an incoming req see
system.mem_ctrls0.wrQLenPdf::47                     0                       # What write queue length does an incoming req see
system.mem_ctrls0.wrQLenPdf::48                     0                       # What write queue length does an incoming req see
system.mem_ctrls0.wrQLenPdf::49                     0                       # What write queue length does an incoming req see
system.mem_ctrls0.wrQLenPdf::50                     0                       # What write queue length does an incoming req see
system.mem_ctrls0.wrQLenPdf::51                     0                       # What write queue length does an incoming req see
system.mem_ctrls0.wrQLenPdf::52                     0                       # What write queue length does an incoming req see
system.mem_ctrls0.wrQLenPdf::53                     0                       # What write queue length does an incoming req see
system.mem_ctrls0.wrQLenPdf::54                     0                       # What write queue length does an incoming req see
system.mem_ctrls0.wrQLenPdf::55                     0                       # What write queue length does an incoming req see
system.mem_ctrls0.wrQLenPdf::56                     0                       # What write queue length does an incoming req see
system.mem_ctrls0.wrQLenPdf::57                     0                       # What write queue length does an incoming req see
system.mem_ctrls0.wrQLenPdf::58                     0                       # What write queue length does an incoming req see
system.mem_ctrls0.wrQLenPdf::59                     0                       # What write queue length does an incoming req see
system.mem_ctrls0.wrQLenPdf::60                     0                       # What write queue length does an incoming req see
system.mem_ctrls0.wrQLenPdf::61                     0                       # What write queue length does an incoming req see
system.mem_ctrls0.wrQLenPdf::62                     0                       # What write queue length does an incoming req see
system.mem_ctrls0.wrQLenPdf::63                     0                       # What write queue length does an incoming req see
system.mem_ctrls0.bytesPerActivate::samples      4636456                       # Bytes accessed per row activation
system.mem_ctrls0.bytesPerActivate::mean   142.248552                       # Bytes accessed per row activation
system.mem_ctrls0.bytesPerActivate::gmean    98.382914                       # Bytes accessed per row activation
system.mem_ctrls0.bytesPerActivate::stdev   183.311321                       # Bytes accessed per row activation
system.mem_ctrls0.bytesPerActivate::0-127      3049378     65.77%     65.77% # Bytes accessed per row activation
system.mem_ctrls0.bytesPerActivate::128-255       970758     20.94%     86.71% # Bytes accessed per row activation
system.mem_ctrls0.bytesPerActivate::256-383       238394      5.14%     91.85% # Bytes accessed per row activation
system.mem_ctrls0.bytesPerActivate::384-511       112785      2.43%     94.28% # Bytes accessed per row activation
system.mem_ctrls0.bytesPerActivate::512-639        61017      1.32%     95.60% # Bytes accessed per row activation
system.mem_ctrls0.bytesPerActivate::640-767        46209      1.00%     96.59% # Bytes accessed per row activation
system.mem_ctrls0.bytesPerActivate::768-895        45727      0.99%     97.58% # Bytes accessed per row activation
system.mem_ctrls0.bytesPerActivate::896-1023        32962      0.71%     98.29% # Bytes accessed per row activation
system.mem_ctrls0.bytesPerActivate::1024-1151        79226      1.71%    100.00% # Bytes accessed per row activation
system.mem_ctrls0.bytesPerActivate::total      4636456                       # Bytes accessed per row activation
system.mem_ctrls0.rdPerTurnAround::samples       148909                       # Reads before turning the bus around for writes
system.mem_ctrls0.rdPerTurnAround::mean     51.825417                       # Reads before turning the bus around for writes
system.mem_ctrls0.rdPerTurnAround::stdev   116.688384                       # Reads before turning the bus around for writes
system.mem_ctrls0.rdPerTurnAround::0-1023       148747     99.89%     99.89% # Reads before turning the bus around for writes
system.mem_ctrls0.rdPerTurnAround::1024-2047          105      0.07%     99.96% # Reads before turning the bus around for writes
system.mem_ctrls0.rdPerTurnAround::2048-3071           47      0.03%     99.99% # Reads before turning the bus around for writes
system.mem_ctrls0.rdPerTurnAround::3072-4095            9      0.01%    100.00% # Reads before turning the bus around for writes
system.mem_ctrls0.rdPerTurnAround::30720-31743            1      0.00%    100.00% # Reads before turning the bus around for writes
system.mem_ctrls0.rdPerTurnAround::total       148909                       # Reads before turning the bus around for writes
system.mem_ctrls0.wrPerTurnAround::samples       148909                       # Writes before turning the bus around for reads
system.mem_ctrls0.wrPerTurnAround::mean     17.378607                       # Writes before turning the bus around for reads
system.mem_ctrls0.wrPerTurnAround::gmean    17.347906                       # Writes before turning the bus around for reads
system.mem_ctrls0.wrPerTurnAround::stdev     1.025853                       # Writes before turning the bus around for reads
system.mem_ctrls0.wrPerTurnAround::16           49339     33.13%     33.13% # Writes before turning the bus around for reads
system.mem_ctrls0.wrPerTurnAround::17            3590      2.41%     35.54% # Writes before turning the bus around for reads
system.mem_ctrls0.wrPerTurnAround::18           87568     58.81%     94.35% # Writes before turning the bus around for reads
system.mem_ctrls0.wrPerTurnAround::19            7367      4.95%     99.30% # Writes before turning the bus around for reads
system.mem_ctrls0.wrPerTurnAround::20             847      0.57%     99.87% # Writes before turning the bus around for reads
system.mem_ctrls0.wrPerTurnAround::21             141      0.09%     99.96% # Writes before turning the bus around for reads
system.mem_ctrls0.wrPerTurnAround::22              45      0.03%     99.99% # Writes before turning the bus around for reads
system.mem_ctrls0.wrPerTurnAround::23               7      0.00%    100.00% # Writes before turning the bus around for reads
system.mem_ctrls0.wrPerTurnAround::24               4      0.00%    100.00% # Writes before turning the bus around for reads
system.mem_ctrls0.wrPerTurnAround::32               1      0.00%    100.00% # Writes before turning the bus around for reads
system.mem_ctrls0.wrPerTurnAround::total       148909                       # Writes before turning the bus around for reads
system.mem_ctrls0.totQLat                145284946852                       # Total ticks spent queuing
system.mem_ctrls0.totMemAccLat           289984753102                       # Total ticks spent from burst creation until serviced by the DRAM
system.mem_ctrls0.totBusLat               38586615000                       # Total ticks spent in databus transfers
system.mem_ctrls0.avgQLat                    18825.82                       # Average queueing delay per DRAM burst
system.mem_ctrls0.avgBusLat                   5000.00                       # Average bus latency per DRAM burst
system.mem_ctrls0.avgMemAccLat               37575.82                       # Average memory access latency per DRAM burst
system.mem_ctrls0.avgRdBW                      168.77                       # Average DRAM read bandwidth in MiByte/s
system.mem_ctrls0.avgWrBW                       56.59                       # Average achieved write bandwidth in MiByte/s
system.mem_ctrls0.avgRdBWSys                   168.93                       # Average system read bandwidth in MiByte/s
system.mem_ctrls0.avgWrBWSys                    56.59                       # Average system write bandwidth in MiByte/s
system.mem_ctrls0.peakBW                     12800.00                       # Theoretical peak bandwidth in MiByte/s
system.mem_ctrls0.busUtil                        1.76                       # Data bus utilization in percentage
system.mem_ctrls0.busUtilRead                    1.32                       # Data bus utilization in percentage for reads
system.mem_ctrls0.busUtilWrite                   0.44                       # Data bus utilization in percentage for writes
system.mem_ctrls0.avgRdQLen                      1.03                       # Average read queue length when enqueuing
system.mem_ctrls0.avgWrQLen                     24.69                       # Average write queue length when enqueuing
system.mem_ctrls0.readRowHits                 5053079                       # Number of row buffer hits during reads
system.mem_ctrls0.writeRowHits                 615611                       # Number of row buffer hits during writes
system.mem_ctrls0.readRowHitRate                65.48                       # Row buffer hit rate for reads
system.mem_ctrls0.writeRowHitRate               23.79                       # Row buffer hit rate for writes
system.mem_ctrls0.avgGap                    283789.91                       # Average gap between requests
system.mem_ctrls0.pageHitRate                   55.01                       # Row buffer hit rate, read and write combined
system.mem_ctrls0_0.actEnergy             16605947820                       # Energy for activate commands per rank (pJ)
system.mem_ctrls0_0.preEnergy              8826255405                       # Energy for precharge commands per rank (pJ)
system.mem_ctrls0_0.readEnergy            27829163880                       # Energy for read commands per rank (pJ)
system.mem_ctrls0_0.writeEnergy            6796382580                       # Energy for write commands per rank (pJ)
system.mem_ctrls0_0.refreshEnergy        221776863360.000061                       # Energy for refresh commands per rank (pJ)
system.mem_ctrls0_0.actBackEnergy        149779774950                       # Energy for active background per rank (pJ)
system.mem_ctrls0_0.preBackEnergy          6050800320                       # Energy for precharge background per rank (pJ)
system.mem_ctrls0_0.actPowerDownEnergy   936860563110                       # Energy for active power-down per rank (pJ)
system.mem_ctrls0_0.prePowerDownEnergy   125641534560                       # Energy for precharge power-down per rank (pJ)
system.mem_ctrls0_0.selfRefreshEnergy     54527912310                       # Energy for self refresh per rank (pJ)
system.mem_ctrls0_0.totalEnergy          1554773210925                       # Total energy per rank (pJ)
system.mem_ctrls0_0.averagePower           531.266928                       # Core power per rank (mW)
system.mem_ctrls0_0.totalIdleTime        2582144789074                       # Total Idle time Per DRAM Rank
system.mem_ctrls0_0.memoryStateTime::IDLE   5222315545                       # Time in different power states
system.mem_ctrls0_0.memoryStateTime::REF  93894070000                       # Time in different power states
system.mem_ctrls0_0.memoryStateTime::SREF 200433032030                       # Time in different power states
system.mem_ctrls0_0.memoryStateTime::PRE_PDN 327193493197                       # Time in different power states
system.mem_ctrls0_0.memoryStateTime::ACT 245277050227                       # Time in different power states
system.mem_ctrls0_0.memoryStateTime::ACT_PDN 2054518681224                       # Time in different power states
system.mem_ctrls0_1.actEnergy             16498405140                       # Energy for activate commands per rank (pJ)
system.mem_ctrls0_1.preEnergy              8769095115                       # Energy for precharge commands per rank (pJ)
system.mem_ctrls0_1.readEnergy            27272522340                       # Energy for read commands per rank (pJ)
system.mem_ctrls0_1.writeEnergy            6712095240                       # Energy for write commands per rank (pJ)
system.mem_ctrls0_1.refreshEnergy        221285151360.000061                       # Energy for refresh commands per rank (pJ)
system.mem_ctrls0_1.actBackEnergy        149388520110                       # Energy for active background per rank (pJ)
system.mem_ctrls0_1.preBackEnergy          6098114400                       # Energy for precharge background per rank (pJ)
system.mem_ctrls0_1.actPowerDownEnergy   928990249350                       # Energy for active power-down per rank (pJ)
system.mem_ctrls0_1.prePowerDownEnergy   127504097280                       # Energy for precharge power-down per rank (pJ)
system.mem_ctrls0_1.selfRefreshEnergy     58209880575                       # Energy for self refresh per rank (pJ)
system.mem_ctrls0_1.totalEnergy          1550806454580                       # Total energy per rank (pJ)
system.mem_ctrls0_1.averagePower           529.911487                       # Core power per rank (mW)
system.mem_ctrls0_1.totalIdleTime        2582886460179                       # Total Idle time Per DRAM Rank
system.mem_ctrls0_1.memoryStateTime::IDLE   5466781364                       # Time in different power states
system.mem_ctrls0_1.memoryStateTime::REF  93690954000                       # Time in different power states
system.mem_ctrls0_1.memoryStateTime::SREF 213576239524                       # Time in different power states
system.mem_ctrls0_1.memoryStateTime::PRE_PDN 332044862137                       # Time in different power states
system.mem_ctrls0_1.memoryStateTime::ACT 244493434662                       # Time in different power states
system.mem_ctrls0_1.memoryStateTime::ACT_PDN 2037266370536                       # Time in different power states
system.mem_ctrls1.pwrStateResidencyTicks::UNDEFINED 72956511223569                       # Cumulative time (in ticks) in various power states
system.mem_ctrls1.bytes_read::cpu.inst             64                       # Number of bytes read from this memory
system.mem_ctrls1.bytes_read::switch_cpus.inst       116160                       # Number of bytes read from this memory
system.mem_ctrls1.bytes_read::switch_cpus.data    407609792                       # Number of bytes read from this memory
system.mem_ctrls1.bytes_read::switch_cpus_1.inst        36288                       # Number of bytes read from this memory
system.mem_ctrls1.bytes_read::switch_cpus_1.data     87270912                       # Number of bytes read from this memory
system.mem_ctrls1.bytes_read::total         495033216                       # Number of bytes read from this memory
system.mem_ctrls1.bytes_inst_read::cpu.inst           64                       # Number of instructions bytes read from this memory
system.mem_ctrls1.bytes_inst_read::switch_cpus.inst       116160                       # Number of instructions bytes read from this memory
system.mem_ctrls1.bytes_inst_read::switch_cpus_1.inst        36288                       # Number of instructions bytes read from this memory
system.mem_ctrls1.bytes_inst_read::total       152512                       # Number of instructions bytes read from this memory
system.mem_ctrls1.bytes_written::writebacks    165644992                       # Number of bytes written to this memory
system.mem_ctrls1.bytes_written::total      165644992                       # Number of bytes written to this memory
system.mem_ctrls1.num_reads::cpu.inst               1                       # Number of read requests responded to by this memory
system.mem_ctrls1.num_reads::switch_cpus.inst         1815                       # Number of read requests responded to by this memory
system.mem_ctrls1.num_reads::switch_cpus.data      6368903                       # Number of read requests responded to by this memory
system.mem_ctrls1.num_reads::switch_cpus_1.inst          567                       # Number of read requests responded to by this memory
system.mem_ctrls1.num_reads::switch_cpus_1.data      1363608                       # Number of read requests responded to by this memory
system.mem_ctrls1.num_reads::total            7734894                       # Number of read requests responded to by this memory
system.mem_ctrls1.num_writes::writebacks      2588203                       # Number of write requests responded to by this memory
system.mem_ctrls1.num_writes::total           2588203                       # Number of write requests responded to by this memory
system.mem_ctrls1.bw_read::cpu.inst                22                       # Total read bandwidth from this memory (bytes/s)
system.mem_ctrls1.bw_read::switch_cpus.inst        39692                       # Total read bandwidth from this memory (bytes/s)
system.mem_ctrls1.bw_read::switch_cpus.data    139280509                       # Total read bandwidth from this memory (bytes/s)
system.mem_ctrls1.bw_read::switch_cpus_1.inst        12400                       # Total read bandwidth from this memory (bytes/s)
system.mem_ctrls1.bw_read::switch_cpus_1.data     29820523                       # Total read bandwidth from this memory (bytes/s)
system.mem_ctrls1.bw_read::total            169153145                       # Total read bandwidth from this memory (bytes/s)
system.mem_ctrls1.bw_inst_read::cpu.inst           22                       # Instruction read bandwidth from this memory (bytes/s)
system.mem_ctrls1.bw_inst_read::switch_cpus.inst        39692                       # Instruction read bandwidth from this memory (bytes/s)
system.mem_ctrls1.bw_inst_read::switch_cpus_1.inst        12400                       # Instruction read bandwidth from this memory (bytes/s)
system.mem_ctrls1.bw_inst_read::total           52113                       # Instruction read bandwidth from this memory (bytes/s)
system.mem_ctrls1.bw_write::writebacks       56600993                       # Write bandwidth from this memory (bytes/s)
system.mem_ctrls1.bw_write::total            56600993                       # Write bandwidth from this memory (bytes/s)
system.mem_ctrls1.bw_total::writebacks       56600993                       # Total bandwidth to/from this memory (bytes/s)
system.mem_ctrls1.bw_total::cpu.inst               22                       # Total bandwidth to/from this memory (bytes/s)
system.mem_ctrls1.bw_total::switch_cpus.inst        39692                       # Total bandwidth to/from this memory (bytes/s)
system.mem_ctrls1.bw_total::switch_cpus.data    139280509                       # Total bandwidth to/from this memory (bytes/s)
system.mem_ctrls1.bw_total::switch_cpus_1.inst        12400                       # Total bandwidth to/from this memory (bytes/s)
system.mem_ctrls1.bw_total::switch_cpus_1.data     29820523                       # Total bandwidth to/from this memory (bytes/s)
system.mem_ctrls1.bw_total::total           225754138                       # Total bandwidth to/from this memory (bytes/s)
system.mem_ctrls1.readReqs                    7734894                       # Number of read requests accepted
system.mem_ctrls1.writeReqs                   2588203                       # Number of write requests accepted
system.mem_ctrls1.readBursts                  7734894                       # Number of DRAM read bursts, including those serviced by the write queue
system.mem_ctrls1.writeBursts                 2588203                       # Number of DRAM write bursts, including those merged in the write queue
system.mem_ctrls1.bytesReadDRAM             494579584                       # Total number of bytes read from DRAM
system.mem_ctrls1.bytesReadWrQ                 453632                       # Total number of bytes read from write queue
system.mem_ctrls1.bytesWritten              165643072                       # Total number of bytes written to DRAM
system.mem_ctrls1.bytesReadSys              495033216                       # Total read bytes from the system interface side
system.mem_ctrls1.bytesWrittenSys           165644992                       # Total written bytes from the system interface side
system.mem_ctrls1.servicedByWrQ                  7088                       # Number of DRAM read bursts serviced by the write queue
system.mem_ctrls1.mergedWrBursts                    1                       # Number of DRAM write bursts merged with an existing one
system.mem_ctrls1.neitherReadNorWriteReqs            0                       # Number of requests that are neither read nor write
system.mem_ctrls1.perBankRdBursts::0           503384                       # Per bank write bursts
system.mem_ctrls1.perBankRdBursts::1           490913                       # Per bank write bursts
system.mem_ctrls1.perBankRdBursts::2           486148                       # Per bank write bursts
system.mem_ctrls1.perBankRdBursts::3           486666                       # Per bank write bursts
system.mem_ctrls1.perBankRdBursts::4           484603                       # Per bank write bursts
system.mem_ctrls1.perBankRdBursts::5           496418                       # Per bank write bursts
system.mem_ctrls1.perBankRdBursts::6           476258                       # Per bank write bursts
system.mem_ctrls1.perBankRdBursts::7           480449                       # Per bank write bursts
system.mem_ctrls1.perBankRdBursts::8           490972                       # Per bank write bursts
system.mem_ctrls1.perBankRdBursts::9           473799                       # Per bank write bursts
system.mem_ctrls1.perBankRdBursts::10          476796                       # Per bank write bursts
system.mem_ctrls1.perBankRdBursts::11          478525                       # Per bank write bursts
system.mem_ctrls1.perBankRdBursts::12          470460                       # Per bank write bursts
system.mem_ctrls1.perBankRdBursts::13          472647                       # Per bank write bursts
system.mem_ctrls1.perBankRdBursts::14          470787                       # Per bank write bursts
system.mem_ctrls1.perBankRdBursts::15          488981                       # Per bank write bursts
system.mem_ctrls1.perBankWrBursts::0           171076                       # Per bank write bursts
system.mem_ctrls1.perBankWrBursts::1           161428                       # Per bank write bursts
system.mem_ctrls1.perBankWrBursts::2           165643                       # Per bank write bursts
system.mem_ctrls1.perBankWrBursts::3           163683                       # Per bank write bursts
system.mem_ctrls1.perBankWrBursts::4           161517                       # Per bank write bursts
system.mem_ctrls1.perBankWrBursts::5           162381                       # Per bank write bursts
system.mem_ctrls1.perBankWrBursts::6           158249                       # Per bank write bursts
system.mem_ctrls1.perBankWrBursts::7           158845                       # Per bank write bursts
system.mem_ctrls1.perBankWrBursts::8           159141                       # Per bank write bursts
system.mem_ctrls1.perBankWrBursts::9           155715                       # Per bank write bursts
system.mem_ctrls1.perBankWrBursts::10          155935                       # Per bank write bursts
system.mem_ctrls1.perBankWrBursts::11          156229                       # Per bank write bursts
system.mem_ctrls1.perBankWrBursts::12          153993                       # Per bank write bursts
system.mem_ctrls1.perBankWrBursts::13          161448                       # Per bank write bursts
system.mem_ctrls1.perBankWrBursts::14          169735                       # Per bank write bursts
system.mem_ctrls1.perBankWrBursts::15          173155                       # Per bank write bursts
system.mem_ctrls1.numRdRetry                        0                       # Number of times read queue was full causing retry
system.mem_ctrls1.numWrRetry                        0                       # Number of times write queue was full causing retry
system.mem_ctrls1.totGap                 2926538507358                       # Total gap between requests
system.mem_ctrls1.readPktSize::0                    0                       # Read request sizes (log2)
system.mem_ctrls1.readPktSize::1                    0                       # Read request sizes (log2)
system.mem_ctrls1.readPktSize::2                    0                       # Read request sizes (log2)
system.mem_ctrls1.readPktSize::3                    0                       # Read request sizes (log2)
system.mem_ctrls1.readPktSize::4                    0                       # Read request sizes (log2)
system.mem_ctrls1.readPktSize::5                    0                       # Read request sizes (log2)
system.mem_ctrls1.readPktSize::6              7734894                       # Read request sizes (log2)
system.mem_ctrls1.writePktSize::0                   0                       # Write request sizes (log2)
system.mem_ctrls1.writePktSize::1                   0                       # Write request sizes (log2)
system.mem_ctrls1.writePktSize::2                   0                       # Write request sizes (log2)
system.mem_ctrls1.writePktSize::3                   0                       # Write request sizes (log2)
system.mem_ctrls1.writePktSize::4                   0                       # Write request sizes (log2)
system.mem_ctrls1.writePktSize::5                   0                       # Write request sizes (log2)
system.mem_ctrls1.writePktSize::6             2588203                       # Write request sizes (log2)
system.mem_ctrls1.rdQLenPdf::0                7331531                       # What read queue length does an incoming req see
system.mem_ctrls1.rdQLenPdf::1                 338970                       # What read queue length does an incoming req see
system.mem_ctrls1.rdQLenPdf::2                  52462                       # What read queue length does an incoming req see
system.mem_ctrls1.rdQLenPdf::3                   4843                       # What read queue length does an incoming req see
system.mem_ctrls1.rdQLenPdf::4                      0                       # What read queue length does an incoming req see
system.mem_ctrls1.rdQLenPdf::5                      0                       # What read queue length does an incoming req see
system.mem_ctrls1.rdQLenPdf::6                      0                       # What read queue length does an incoming req see
system.mem_ctrls1.rdQLenPdf::7                      0                       # What read queue length does an incoming req see
system.mem_ctrls1.rdQLenPdf::8                      0                       # What read queue length does an incoming req see
system.mem_ctrls1.rdQLenPdf::9                      0                       # What read queue length does an incoming req see
system.mem_ctrls1.rdQLenPdf::10                     0                       # What read queue length does an incoming req see
system.mem_ctrls1.rdQLenPdf::11                     0                       # What read queue length does an incoming req see
system.mem_ctrls1.rdQLenPdf::12                     0                       # What read queue length does an incoming req see
system.mem_ctrls1.rdQLenPdf::13                     0                       # What read queue length does an incoming req see
system.mem_ctrls1.rdQLenPdf::14                     0                       # What read queue length does an incoming req see
system.mem_ctrls1.rdQLenPdf::15                     0                       # What read queue length does an incoming req see
system.mem_ctrls1.rdQLenPdf::16                     0                       # What read queue length does an incoming req see
system.mem_ctrls1.rdQLenPdf::17                     0                       # What read queue length does an incoming req see
system.mem_ctrls1.rdQLenPdf::18                     0                       # What read queue length does an incoming req see
system.mem_ctrls1.rdQLenPdf::19                     0                       # What read queue length does an incoming req see
system.mem_ctrls1.rdQLenPdf::20                     0                       # What read queue length does an incoming req see
system.mem_ctrls1.rdQLenPdf::21                     0                       # What read queue length does an incoming req see
system.mem_ctrls1.rdQLenPdf::22                     0                       # What read queue length does an incoming req see
system.mem_ctrls1.rdQLenPdf::23                     0                       # What read queue length does an incoming req see
system.mem_ctrls1.rdQLenPdf::24                     0                       # What read queue length does an incoming req see
system.mem_ctrls1.rdQLenPdf::25                     0                       # What read queue length does an incoming req see
system.mem_ctrls1.rdQLenPdf::26                     0                       # What read queue length does an incoming req see
system.mem_ctrls1.rdQLenPdf::27                     0                       # What read queue length does an incoming req see
system.mem_ctrls1.rdQLenPdf::28                     0                       # What read queue length does an incoming req see
system.mem_ctrls1.rdQLenPdf::29                     0                       # What read queue length does an incoming req see
system.mem_ctrls1.rdQLenPdf::30                     0                       # What read queue length does an incoming req see
system.mem_ctrls1.rdQLenPdf::31                     0                       # What read queue length does an incoming req see
system.mem_ctrls1.wrQLenPdf::0                      2                       # What write queue length does an incoming req see
system.mem_ctrls1.wrQLenPdf::1                      2                       # What write queue length does an incoming req see
system.mem_ctrls1.wrQLenPdf::2                      2                       # What write queue length does an incoming req see
system.mem_ctrls1.wrQLenPdf::3                      2                       # What write queue length does an incoming req see
system.mem_ctrls1.wrQLenPdf::4                      2                       # What write queue length does an incoming req see
system.mem_ctrls1.wrQLenPdf::5                      2                       # What write queue length does an incoming req see
system.mem_ctrls1.wrQLenPdf::6                      2                       # What write queue length does an incoming req see
system.mem_ctrls1.wrQLenPdf::7                      2                       # What write queue length does an incoming req see
system.mem_ctrls1.wrQLenPdf::8                      2                       # What write queue length does an incoming req see
system.mem_ctrls1.wrQLenPdf::9                      2                       # What write queue length does an incoming req see
system.mem_ctrls1.wrQLenPdf::10                     2                       # What write queue length does an incoming req see
system.mem_ctrls1.wrQLenPdf::11                     2                       # What write queue length does an incoming req see
system.mem_ctrls1.wrQLenPdf::12                     2                       # What write queue length does an incoming req see
system.mem_ctrls1.wrQLenPdf::13                     2                       # What write queue length does an incoming req see
system.mem_ctrls1.wrQLenPdf::14                     2                       # What write queue length does an incoming req see
system.mem_ctrls1.wrQLenPdf::15                 95732                       # What write queue length does an incoming req see
system.mem_ctrls1.wrQLenPdf::16                100114                       # What write queue length does an incoming req see
system.mem_ctrls1.wrQLenPdf::17                143796                       # What write queue length does an incoming req see
system.mem_ctrls1.wrQLenPdf::18                148777                       # What write queue length does an incoming req see
system.mem_ctrls1.wrQLenPdf::19                149668                       # What write queue length does an incoming req see
system.mem_ctrls1.wrQLenPdf::20                149895                       # What write queue length does an incoming req see
system.mem_ctrls1.wrQLenPdf::21                149804                       # What write queue length does an incoming req see
system.mem_ctrls1.wrQLenPdf::22                150053                       # What write queue length does an incoming req see
system.mem_ctrls1.wrQLenPdf::23                150114                       # What write queue length does an incoming req see
system.mem_ctrls1.wrQLenPdf::24                150147                       # What write queue length does an incoming req see
system.mem_ctrls1.wrQLenPdf::25                151517                       # What write queue length does an incoming req see
system.mem_ctrls1.wrQLenPdf::26                150609                       # What write queue length does an incoming req see
system.mem_ctrls1.wrQLenPdf::27                149826                       # What write queue length does an incoming req see
system.mem_ctrls1.wrQLenPdf::28                149804                       # What write queue length does an incoming req see
system.mem_ctrls1.wrQLenPdf::29                149986                       # What write queue length does an incoming req see
system.mem_ctrls1.wrQLenPdf::30                150097                       # What write queue length does an incoming req see
system.mem_ctrls1.wrQLenPdf::31                149042                       # What write queue length does an incoming req see
system.mem_ctrls1.wrQLenPdf::32                148965                       # What write queue length does an incoming req see
system.mem_ctrls1.wrQLenPdf::33                   159                       # What write queue length does an incoming req see
system.mem_ctrls1.wrQLenPdf::34                    49                       # What write queue length does an incoming req see
system.mem_ctrls1.wrQLenPdf::35                    16                       # What write queue length does an incoming req see
system.mem_ctrls1.wrQLenPdf::36                     2                       # What write queue length does an incoming req see
system.mem_ctrls1.wrQLenPdf::37                     0                       # What write queue length does an incoming req see
system.mem_ctrls1.wrQLenPdf::38                     0                       # What write queue length does an incoming req see
system.mem_ctrls1.wrQLenPdf::39                     0                       # What write queue length does an incoming req see
system.mem_ctrls1.wrQLenPdf::40                     0                       # What write queue length does an incoming req see
system.mem_ctrls1.wrQLenPdf::41                     0                       # What write queue length does an incoming req see
system.mem_ctrls1.wrQLenPdf::42                     0                       # What write queue length does an incoming req see
system.mem_ctrls1.wrQLenPdf::43                     0                       # What write queue length does an incoming req see
system.mem_ctrls1.wrQLenPdf::44                     0                       # What write queue length does an incoming req see
system.mem_ctrls1.wrQLenPdf::45                     0                       # What write queue length does an incoming req see
system.mem_ctrls1.wrQLenPdf::46                     0                       # What write queue length does an incoming req see
system.mem_ctrls1.wrQLenPdf::47                     0                       # What write queue length does an incoming req see
system.mem_ctrls1.wrQLenPdf::48                     0                       # What write queue length does an incoming req see
system.mem_ctrls1.wrQLenPdf::49                     0                       # What write queue length does an incoming req see
system.mem_ctrls1.wrQLenPdf::50                     0                       # What write queue length does an incoming req see
system.mem_ctrls1.wrQLenPdf::51                     0                       # What write queue length does an incoming req see
system.mem_ctrls1.wrQLenPdf::52                     0                       # What write queue length does an incoming req see
system.mem_ctrls1.wrQLenPdf::53                     0                       # What write queue length does an incoming req see
system.mem_ctrls1.wrQLenPdf::54                     0                       # What write queue length does an incoming req see
system.mem_ctrls1.wrQLenPdf::55                     0                       # What write queue length does an incoming req see
system.mem_ctrls1.wrQLenPdf::56                     0                       # What write queue length does an incoming req see
system.mem_ctrls1.wrQLenPdf::57                     0                       # What write queue length does an incoming req see
system.mem_ctrls1.wrQLenPdf::58                     0                       # What write queue length does an incoming req see
system.mem_ctrls1.wrQLenPdf::59                     0                       # What write queue length does an incoming req see
system.mem_ctrls1.wrQLenPdf::60                     0                       # What write queue length does an incoming req see
system.mem_ctrls1.wrQLenPdf::61                     0                       # What write queue length does an incoming req see
system.mem_ctrls1.wrQLenPdf::62                     0                       # What write queue length does an incoming req see
system.mem_ctrls1.wrQLenPdf::63                     0                       # What write queue length does an incoming req see
system.mem_ctrls1.bytesPerActivate::samples      4642249                       # Bytes accessed per row activation
system.mem_ctrls1.bytesPerActivate::mean   142.220321                       # Bytes accessed per row activation
system.mem_ctrls1.bytesPerActivate::gmean    98.379183                       # Bytes accessed per row activation
system.mem_ctrls1.bytesPerActivate::stdev   183.250228                       # Bytes accessed per row activation
system.mem_ctrls1.bytesPerActivate::0-127      3053214     65.77%     65.77% # Bytes accessed per row activation
system.mem_ctrls1.bytesPerActivate::128-255       971005     20.92%     86.69% # Bytes accessed per row activation
system.mem_ctrls1.bytesPerActivate::256-383       240411      5.18%     91.87% # Bytes accessed per row activation
system.mem_ctrls1.bytesPerActivate::384-511       112793      2.43%     94.30% # Bytes accessed per row activation
system.mem_ctrls1.bytesPerActivate::512-639        60465      1.30%     95.60% # Bytes accessed per row activation
system.mem_ctrls1.bytesPerActivate::640-767        46257      1.00%     96.59% # Bytes accessed per row activation
system.mem_ctrls1.bytesPerActivate::768-895        45674      0.98%     97.58% # Bytes accessed per row activation
system.mem_ctrls1.bytesPerActivate::896-1023        33321      0.72%     98.30% # Bytes accessed per row activation
system.mem_ctrls1.bytesPerActivate::1024-1151        79109      1.70%    100.00% # Bytes accessed per row activation
system.mem_ctrls1.bytesPerActivate::total      4642249                       # Bytes accessed per row activation
system.mem_ctrls1.rdPerTurnAround::samples       148901                       # Reads before turning the bus around for writes
system.mem_ctrls1.rdPerTurnAround::mean     51.898631                       # Reads before turning the bus around for writes
system.mem_ctrls1.rdPerTurnAround::stdev   117.167463                       # Reads before turning the bus around for writes
system.mem_ctrls1.rdPerTurnAround::0-1023       148735     99.89%     99.89% # Reads before turning the bus around for writes
system.mem_ctrls1.rdPerTurnAround::1024-2047          111      0.07%     99.96% # Reads before turning the bus around for writes
system.mem_ctrls1.rdPerTurnAround::2048-3071           47      0.03%     99.99% # Reads before turning the bus around for writes
system.mem_ctrls1.rdPerTurnAround::3072-4095            7      0.00%    100.00% # Reads before turning the bus around for writes
system.mem_ctrls1.rdPerTurnAround::30720-31743            1      0.00%    100.00% # Reads before turning the bus around for writes
system.mem_ctrls1.rdPerTurnAround::total       148901                       # Reads before turning the bus around for writes
system.mem_ctrls1.wrPerTurnAround::samples       148901                       # Writes before turning the bus around for reads
system.mem_ctrls1.wrPerTurnAround::mean     17.381838                       # Writes before turning the bus around for reads
system.mem_ctrls1.wrPerTurnAround::gmean    17.351142                       # Writes before turning the bus around for reads
system.mem_ctrls1.wrPerTurnAround::stdev     1.025649                       # Writes before turning the bus around for reads
system.mem_ctrls1.wrPerTurnAround::16           49191     33.04%     33.04% # Writes before turning the bus around for reads
system.mem_ctrls1.wrPerTurnAround::17            3465      2.33%     35.36% # Writes before turning the bus around for reads
system.mem_ctrls1.wrPerTurnAround::18           87787     58.96%     94.32% # Writes before turning the bus around for reads
system.mem_ctrls1.wrPerTurnAround::19            7403      4.97%     99.29% # Writes before turning the bus around for reads
system.mem_ctrls1.wrPerTurnAround::20             850      0.57%     99.86% # Writes before turning the bus around for reads
system.mem_ctrls1.wrPerTurnAround::21             147      0.10%     99.96% # Writes before turning the bus around for reads
system.mem_ctrls1.wrPerTurnAround::22              39      0.03%     99.99% # Writes before turning the bus around for reads
system.mem_ctrls1.wrPerTurnAround::23              14      0.01%    100.00% # Writes before turning the bus around for reads
system.mem_ctrls1.wrPerTurnAround::24               3      0.00%    100.00% # Writes before turning the bus around for reads
system.mem_ctrls1.wrPerTurnAround::25               2      0.00%    100.00% # Writes before turning the bus around for reads
system.mem_ctrls1.wrPerTurnAround::total       148901                       # Writes before turning the bus around for reads
system.mem_ctrls1.totQLat                145667817885                       # Total ticks spent queuing
system.mem_ctrls1.totMemAccLat           290564180385                       # Total ticks spent from burst creation until serviced by the DRAM
system.mem_ctrls1.totBusLat               38639030000                       # Total ticks spent in databus transfers
system.mem_ctrls1.avgQLat                    18849.83                       # Average queueing delay per DRAM burst
system.mem_ctrls1.avgBusLat                   5000.00                       # Average bus latency per DRAM burst
system.mem_ctrls1.avgMemAccLat               37599.83                       # Average memory access latency per DRAM burst
system.mem_ctrls1.avgRdBW                      169.00                       # Average DRAM read bandwidth in MiByte/s
system.mem_ctrls1.avgWrBW                       56.60                       # Average achieved write bandwidth in MiByte/s
system.mem_ctrls1.avgRdBWSys                   169.15                       # Average system read bandwidth in MiByte/s
system.mem_ctrls1.avgWrBWSys                    56.60                       # Average system write bandwidth in MiByte/s
system.mem_ctrls1.peakBW                     12800.00                       # Theoretical peak bandwidth in MiByte/s
system.mem_ctrls1.busUtil                        1.76                       # Data bus utilization in percentage
system.mem_ctrls1.busUtilRead                    1.32                       # Data bus utilization in percentage for reads
system.mem_ctrls1.busUtilWrite                   0.44                       # Data bus utilization in percentage for writes
system.mem_ctrls1.avgRdQLen                      1.03                       # Average read queue length when enqueuing
system.mem_ctrls1.avgWrQLen                     24.69                       # Average write queue length when enqueuing
system.mem_ctrls1.readRowHits                 5057083                       # Number of row buffer hits during reads
system.mem_ctrls1.writeRowHits                 616640                       # Number of row buffer hits during writes
system.mem_ctrls1.readRowHitRate                65.44                       # Row buffer hit rate for reads
system.mem_ctrls1.writeRowHitRate               23.83                       # Row buffer hit rate for writes
system.mem_ctrls1.avgGap                    283494.24                       # Average gap between requests
system.mem_ctrls1.pageHitRate                   55.00                       # Row buffer hit rate, read and write combined
system.mem_ctrls1_0.actEnergy             16630659360                       # Energy for activate commands per rank (pJ)
system.mem_ctrls1_0.preEnergy              8839393695                       # Energy for precharge commands per rank (pJ)
system.mem_ctrls1_0.readEnergy            27880550460                       # Energy for read commands per rank (pJ)
system.mem_ctrls1_0.writeEnergy            6800730840                       # Energy for write commands per rank (pJ)
system.mem_ctrls1_0.refreshEnergy        222045461040.000061                       # Energy for refresh commands per rank (pJ)
system.mem_ctrls1_0.actBackEnergy        149381026320                       # Energy for active background per rank (pJ)
system.mem_ctrls1_0.preBackEnergy          6034918560                       # Energy for precharge background per rank (pJ)
system.mem_ctrls1_0.actPowerDownEnergy   939592966980                       # Energy for active power-down per rank (pJ)
system.mem_ctrls1_0.prePowerDownEnergy   125225687520                       # Energy for precharge power-down per rank (pJ)
system.mem_ctrls1_0.selfRefreshEnergy     53526918855                       # Energy for self refresh per rank (pJ)
system.mem_ctrls1_0.totalEnergy          1556047823070                       # Total energy per rank (pJ)
system.mem_ctrls1_0.averagePower           531.702460                       # Core power per rank (mW)
system.mem_ctrls1_0.totalIdleTime        2583033980758                       # Total Idle time Per DRAM Rank
system.mem_ctrls1_0.memoryStateTime::IDLE   5201033028                       # Time in different power states
system.mem_ctrls1_0.memoryStateTime::REF  94007360000                       # Time in different power states
system.mem_ctrls1_0.memoryStateTime::SREF 196414167421                       # Time in different power states
system.mem_ctrls1_0.memoryStateTime::PRE_PDN 326112949417                       # Time in different power states
system.mem_ctrls1_0.memoryStateTime::ACT 244295864477                       # Time in different power states
system.mem_ctrls1_0.memoryStateTime::ACT_PDN 2060507267880                       # Time in different power states
system.mem_ctrls1_1.actEnergy             16515048480                       # Energy for activate commands per rank (pJ)
system.mem_ctrls1_1.preEnergy              8777941260                       # Energy for precharge commands per rank (pJ)
system.mem_ctrls1_1.readEnergy            27295984380                       # Energy for read commands per rank (pJ)
system.mem_ctrls1_1.writeEnergy            6709532220                       # Energy for write commands per rank (pJ)
system.mem_ctrls1_1.refreshEnergy        220953860400.000061                       # Energy for refresh commands per rank (pJ)
system.mem_ctrls1_1.actBackEnergy        149508372300                       # Energy for active background per rank (pJ)
system.mem_ctrls1_1.preBackEnergy          6065773920                       # Energy for precharge background per rank (pJ)
system.mem_ctrls1_1.actPowerDownEnergy   929461213560                       # Energy for active power-down per rank (pJ)
system.mem_ctrls1_1.prePowerDownEnergy   126293257920                       # Energy for precharge power-down per rank (pJ)
system.mem_ctrls1_1.selfRefreshEnergy     58502791500                       # Energy for self refresh per rank (pJ)
system.mem_ctrls1_1.totalEnergy          1550162041170                       # Total energy per rank (pJ)
system.mem_ctrls1_1.averagePower           529.691291                       # Core power per rank (mW)
system.mem_ctrls1_1.totalIdleTime        2582692920008                       # Total Idle time Per DRAM Rank
system.mem_ctrls1_1.memoryStateTime::IDLE   5385922620                       # Time in different power states
system.mem_ctrls1_1.memoryStateTime::REF  93548738000                       # Time in different power states
system.mem_ctrls1_1.memoryStateTime::SREF 215518198137                       # Time in different power states
system.mem_ctrls1_1.memoryStateTime::PRE_PDN 328888328834                       # Time in different power states
system.mem_ctrls1_1.memoryStateTime::ACT 244910979882                       # Time in different power states
system.mem_ctrls1_1.memoryStateTime::ACT_PDN 2038286474750                       # Time in different power states
system.pwrStateResidencyTicks::UNDEFINED 72956511223569                       # Cumulative time (in ticks) in various power states
system.cpu.branchPred.lookups                       1                       # Number of BP lookups
system.cpu.branchPred.condPredicted                 1                       # Number of conditional branches predicted
system.cpu.branchPred.condIncorrect                 0                       # Number of conditional branches incorrect
system.cpu.branchPred.BTBLookups                    0                       # Number of BTB lookups
system.cpu.branchPred.BTBHits                       0                       # Number of BTB hits
system.cpu.branchPred.BTBCorrect                    0                       # Number of correct BTB predictions (this stat may not work properly.
system.cpu.branchPred.BTBHitPct                   nan                       # BTB Hit Percentage
system.cpu.branchPred.usedRAS                       0                       # Number of times the RAS was used to get a target.
system.cpu.branchPred.RASInCorrect                  0                       # Number of incorrect RAS predictions.
system.cpu.branchPred.indirectLookups               0                       # Number of indirect predictor lookups.
system.cpu.branchPred.indirectHits                  0                       # Number of indirect target hits.
system.cpu.branchPred.indirectMisses                0                       # Number of indirect misses.
system.cpu.branchPredindirectMispredicted            0                       # Number of mispredicted indirect branches.
system.cpu_voltage_domain.voltage                   1                       # Voltage in Volts
system.cpu_clk_domain.clock                       333                       # Clock period in ticks
system.cpu.dtb.fetch_hits                           0                       # ITB hits
system.cpu.dtb.fetch_misses                         0                       # ITB misses
system.cpu.dtb.fetch_acv                            0                       # ITB acv
system.cpu.dtb.fetch_accesses                       0                       # ITB accesses
system.cpu.dtb.read_hits                            2                       # DTB read hits
system.cpu.dtb.read_misses                          0                       # DTB read misses
system.cpu.dtb.read_acv                             0                       # DTB read access violations
system.cpu.dtb.read_accesses                        2                       # DTB read accesses
system.cpu.dtb.write_hits                           0                       # DTB write hits
system.cpu.dtb.write_misses                         0                       # DTB write misses
system.cpu.dtb.write_acv                            0                       # DTB write access violations
system.cpu.dtb.write_accesses                       0                       # DTB write accesses
system.cpu.dtb.data_hits                            2                       # DTB hits
system.cpu.dtb.data_misses                          0                       # DTB misses
system.cpu.dtb.data_acv                             0                       # DTB access violations
system.cpu.dtb.data_accesses                        2                       # DTB accesses
system.cpu.itb.fetch_hits                           3                       # ITB hits
system.cpu.itb.fetch_misses                         0                       # ITB misses
system.cpu.itb.fetch_acv                            0                       # ITB acv
system.cpu.itb.fetch_accesses                       3                       # ITB accesses
system.cpu.itb.read_hits                            0                       # DTB read hits
system.cpu.itb.read_misses                          0                       # DTB read misses
system.cpu.itb.read_acv                             0                       # DTB read access violations
system.cpu.itb.read_accesses                        0                       # DTB read accesses
system.cpu.itb.write_hits                           0                       # DTB write hits
system.cpu.itb.write_misses                         0                       # DTB write misses
system.cpu.itb.write_acv                            0                       # DTB write access violations
system.cpu.itb.write_accesses                       0                       # DTB write accesses
system.cpu.itb.data_hits                            0                       # DTB hits
system.cpu.itb.data_misses                          0                       # DTB misses
system.cpu.itb.data_acv                             0                       # DTB access violations
system.cpu.itb.data_accesses                        0                       # DTB accesses
system.cpu.workload.num_syscalls                    5                       # Number of system calls
system.cpu.pwrStateResidencyTicks::ON    2926538642223                       # Cumulative time (in ticks) in various power states
system.cpu.numCycles                              368                       # number of cpu cycles simulated
system.cpu.numWorkItemsStarted                      0                       # number of work items this cpu started
system.cpu.numWorkItemsCompleted                    0                       # number of work items this cpu completed
system.cpu.fetch.icacheStallCycles                 18                       # Number of cycles fetch is stalled on an Icache miss
system.cpu.fetch.Insts                             10                       # Number of instructions fetch has processed
system.cpu.fetch.Branches                           1                       # Number of branches that fetch encountered
system.cpu.fetch.Cycles                             2                       # Number of cycles fetch has run and was not squashing or blocked
system.cpu.fetch.SquashCycles                       3                       # Number of cycles fetch has spent squashing
system.cpu.fetch.PendingDrainCycles                 3                       # Number of cycles fetch has spent waiting on pipes to drain
system.cpu.fetch.CacheLines                         3                       # Number of cache lines fetched
system.cpu.fetch.IcacheSquashes                     2                       # Number of outstanding Icache misses that were squashed
system.cpu.fetch.rateDist::samples                 24                       # Number of instructions fetched each cycle (Total)
system.cpu.fetch.rateDist::mean              0.416667                       # Number of instructions fetched each cycle (Total)
system.cpu.fetch.rateDist::stdev             1.665942                       # Number of instructions fetched each cycle (Total)
system.cpu.fetch.rateDist::underflows               0      0.00%      0.00% # Number of instructions fetched each cycle (Total)
[...]
system.switch_cpus_1.iq.int_inst_queue_wakeup_accesses    196692665                       # Number of integer instruction queue wakeup accesses
system.switch_cpus_1.iq.fp_inst_queue_reads    132663277                       # Number of floating instruction queue reads
system.switch_cpus_1.iq.fp_inst_queue_writes     84843635                       # Number of floating instruction queue writes
system.switch_cpus_1.iq.fp_inst_queue_wakeup_accesses     59345865                       # Number of floating instruction queue wakeup accesses
system.switch_cpus_1.iq.int_alu_accesses    212713237                       # Number of integer alu accesses
system.switch_cpus_1.iq.fp_alu_accesses      67872127                       # Number of floating point alu accesses
system.switch_cpus_1.iew.lsq.thread0.forwLoads      2270554                       # Number of loads that had data forwarded from stores
system.switch_cpus_1.iew.lsq.thread0.invAddrLoads            0                       # Number of loads ignored due to an invalid address
system.switch_cpus_1.iew.lsq.thread0.squashedLoads     21544556                       # Number of loads squashed
system.switch_cpus_1.iew.lsq.thread0.ignoredResponses        14682                       # Number of memory responses ignored because the instruction is squashed
system.switch_cpus_1.iew.lsq.thread0.memOrderViolation         8434                       # Number of memory ordering violations
system.switch_cpus_1.iew.lsq.thread0.squashedStores      7143492                       # Number of stores squashed
system.switch_cpus_1.iew.lsq.thread0.invAddrSwpfs            0                       # Number of software prefetches ignored due to an invalid address
system.switch_cpus_1.iew.lsq.thread0.blockedLoads            0                       # Number of blocked loads due to partial load-store forwarding
system.switch_cpus_1.iew.lsq.thread0.rescheduledLoads         6021                       # Number of loads that were rescheduled
system.switch_cpus_1.iew.lsq.thread0.cacheBlocked     12678984                       # Number of times an access to memory failed due to the cache being blocked
system.switch_cpus_1.iew.iewIdleCycles              0                       # Number of cycles IEW is idle
system.switch_cpus_1.iew.iewSquashCycles      1486211                       # Number of cycles IEW is squashing
system.switch_cpus_1.iew.iewBlockCycles     134467282                       # Number of cycles IEW is blocking
system.switch_cpus_1.iew.iewUnblockCycles     60531933                       # Number of cycles IEW is unblocking
system.switch_cpus_1.iew.iewDispatchedInsts    292380387                       # Number of instructions dispatched to IQ
system.switch_cpus_1.iew.iewDispSquashedInsts       150296                       # Number of squashed instructions skipped by dispatch
system.switch_cpus_1.iew.iewDispLoadInsts     61216287                       # Number of dispatched load instructions
system.switch_cpus_1.iew.iewDispStoreInsts     19134535                       # Number of dispatched store instructions
system.switch_cpus_1.iew.iewDispNonSpecInsts          196                       # Number of dispatched non-speculative instructions
system.switch_cpus_1.iew.iewIQFullEvents      1005605                       # Number of times the IQ has become full, causing a stall
system.switch_cpus_1.iew.iewLSQFullEvents     58991386                       # Number of times the LSQ has become full, causing a stall
system.switch_cpus_1.iew.memOrderViolationEvents         8434                       # Number of memory order violations
system.switch_cpus_1.iew.predictedTakenIncorrect       823386                       # Number of branches that were predicted taken incorrectly
system.switch_cpus_1.iew.predictedNotTakenIncorrect       565051                       # Number of branches that were predicted not taken incorrectly
system.switch_cpus_1.iew.branchMispredicts      1388437                       # Number of branch mispredicts detected at execute
system.switch_cpus_1.iew.iewExecutedInsts    272003956                       # Number of executed instructions
system.switch_cpus_1.iew.iewExecLoadInsts     68177158                       # Number of load instructions executed
system.switch_cpus_1.iew.iewExecSquashedInsts      1773863                       # Number of squashed instructions skipped in execute
system.switch_cpus_1.iew.exec_swp                   0                       # number of swp insts executed
system.switch_cpus_1.iew.exec_nop             1880563                       # number of nop insts executed
system.switch_cpus_1.iew.exec_refs           83878418                       # number of memory reference insts executed
system.switch_cpus_1.iew.exec_branches       34703009                       # Number of branches executed
system.switch_cpus_1.iew.exec_stores         15701260                       # Number of stores executed
system.switch_cpus_1.iew.exec_rate           0.469822                       # Inst execution rate
system.switch_cpus_1.iew.wb_sent            258014947                       # cumulative count of insts sent to commit
system.switch_cpus_1.iew.wb_count           256038530                       # cumulative count of insts written-back
system.switch_cpus_1.iew.wb_producers       153723419                       # num instructions producing a value
system.switch_cpus_1.iew.wb_consumers       189521819                       # num instructions consuming a value
system.switch_cpus_1.iew.wb_rate             0.442245                       # insts written-back per cycle
system.switch_cpus_1.iew.wb_fanout           0.811112                       # average fanout of values written-back
system.switch_cpus_1.commit.commitSquashedInsts     87036274                       # The number of squashed insts skipped by commit
system.switch_cpus_1.commit.commitNonSpecStalls          204                       # The number of times commit has been forced to stall to communicate backwards
system.switch_cpus_1.commit.branchMispredicts      1113467                       # The number of times a branch was mispredicted
system.switch_cpus_1.commit.committed_per_cycle::samples    566654891                       # Number of insts commited each cycle
system.switch_cpus_1.commit.committed_per_cycle::mean     0.355099                       # Number of insts commited each cycle
system.switch_cpus_1.commit.committed_per_cycle::stdev     1.535143                       # Number of insts commited each cycle
system.switch_cpus_1.commit.committed_per_cycle::underflows            0      0.00%      0.00% # Number of insts commited each cycle
system.switch_cpus_1.commit.committed_per_cycle::0    527721331     93.13%     93.13% # Number of insts commited each cycle
system.switch_cpus_1.commit.committed_per_cycle::1      9154097      1.62%     94.74% # Number of insts commited each cycle
system.switch_cpus_1.commit.committed_per_cycle::2      3980114      0.70%     95.45% # Number of insts commited each cycle
system.switch_cpus_1.commit.committed_per_cycle::3      1842648      0.33%     95.77% # Number of insts commited each cycle
system.switch_cpus_1.commit.committed_per_cycle::4      1299156      0.23%     96.00% # Number of insts commited each cycle
system.switch_cpus_1.commit.committed_per_cycle::5      1849087      0.33%     96.33% # Number of insts commited each cycle
system.switch_cpus_1.commit.committed_per_cycle::6       729679      0.13%     96.46% # Number of insts commited each cycle
system.switch_cpus_1.commit.committed_per_cycle::7       874286      0.15%     96.61% # Number of insts commited each cycle
system.switch_cpus_1.commit.committed_per_cycle::8     19204493      3.39%    100.00% # Number of insts commited each cycle
system.switch_cpus_1.commit.committed_per_cycle::overflows            0      0.00%    100.00% # Number of insts commited each cycle
system.switch_cpus_1.commit.committed_per_cycle::min_value            0                       # Number of insts commited each cycle
system.switch_cpus_1.commit.committed_per_cycle::max_value            8                       # Number of insts commited each cycle
system.switch_cpus_1.commit.committed_per_cycle::total    566654891                       # Number of insts commited each cycle
system.switch_cpus_1.commit.committedInsts    201218348                       # Number of instructions committed
system.switch_cpus_1.commit.committedOps    201218348                       # Number of ops (including micro ops) committed
system.switch_cpus_1.commit.swp_count               0                       # Number of s/w prefetches committed
system.switch_cpus_1.commit.refs             51662749                       # Number of memory references committed
system.switch_cpus_1.commit.loads            39671713                       # Number of loads committed
system.switch_cpus_1.commit.membars               102                       # Number of memory barriers committed
system.switch_cpus_1.commit.branches         28384894                       # Number of branches committed
system.switch_cpus_1.commit.fp_insts         51627815                       # Number of committed floating point instructions.
system.switch_cpus_1.commit.int_insts       168624392                       # Number of committed integer instructions.
system.switch_cpus_1.commit.function_calls       460018                       # Number of function calls committed.
system.switch_cpus_1.commit.op_class_0::No_OpClass      1218344      0.61%      0.61% # Class of committed instruction
system.switch_cpus_1.commit.op_class_0::IntAlu    117264313     58.28%     58.88% # Class of committed instruction
system.switch_cpus_1.commit.op_class_0::IntMult       166526      0.08%     58.97% # Class of committed instruction
system.switch_cpus_1.commit.op_class_0::IntDiv            0      0.00%     58.97% # Class of committed instruction
system.switch_cpus_1.commit.op_class_0::FloatAdd     18908760      9.40%     68.36% # Class of committed instruction
system.switch_cpus_1.commit.op_class_0::FloatCmp     10580725      5.26%     73.62% # Class of committed instruction
system.switch_cpus_1.commit.op_class_0::FloatCvt         1376      0.00%     73.62% # Class of committed instruction
system.switch_cpus_1.commit.op_class_0::FloatMult       880508      0.44%     74.06% # Class of committed instruction
system.switch_cpus_1.commit.op_class_0::FloatMultAcc            0      0.00%     74.06% # Class of committed instruction
system.switch_cpus_1.commit.op_class_0::FloatDiv       534945      0.27%     74.32% # Class of committed instruction
system.switch_cpus_1.commit.op_class_0::FloatMisc            0      0.00%     74.32% # Class of committed instruction
system.switch_cpus_1.commit.op_class_0::FloatSqrt            0      0.00%     74.32% # Class of committed instruction
system.switch_cpus_1.commit.op_class_0::SimdAdd            0      0.00%     74.32% # Class of committed instruction
system.switch_cpus_1.commit.op_class_0::SimdAddAcc            0      0.00%     74.32% # Class of committed instruction
system.switch_cpus_1.commit.op_class_0::SimdAlu            0      0.00%     74.32% # Class of committed instruction
system.switch_cpus_1.commit.op_class_0::SimdCmp            0      0.00%     74.32% # Class of committed instruction
system.switch_cpus_1.commit.op_class_0::SimdCvt            0      0.00%     74.32% # Class of committed instruction
system.switch_cpus_1.commit.op_class_0::SimdMisc            0      0.00%     74.32% # Class of committed instruction
system.switch_cpus_1.commit.op_class_0::SimdMult            0      0.00%     74.32% # Class of committed instruction
system.switch_cpus_1.commit.op_class_0::SimdMultAcc            0      0.00%     74.32% # Class of committed instruction
system.switch_cpus_1.commit.op_class_0::SimdShift            0      0.00%     74.32% # Class of committed instruction
system.switch_cpus_1.commit.op_class_0::SimdShiftAcc            0      0.00%     74.32% # Class of committed instruction
system.switch_cpus_1.commit.op_class_0::SimdSqrt            0      0.00%     74.32% # Class of committed instruction
system.switch_cpus_1.commit.op_class_0::SimdFloatAdd            0      0.00%     74.32% # Class of committed instruction
system.switch_cpus_1.commit.op_class_0::SimdFloatAlu            0      0.00%     74.32% # Class of committed instruction
system.switch_cpus_1.commit.op_class_0::SimdFloatCmp            0      0.00%     74.32% # Class of committed instruction
system.switch_cpus_1.commit.op_class_0::SimdFloatCvt            0      0.00%     74.32% # Class of committed instruction
system.switch_cpus_1.commit.op_class_0::SimdFloatDiv            0      0.00%     74.32% # Class of committed instruction
system.switch_cpus_1.commit.op_class_0::SimdFloatMisc            0      0.00%     74.32% # Class of committed instruction
system.switch_cpus_1.commit.op_class_0::SimdFloatMult            0      0.00%     74.32% # Class of committed instruction
system.switch_cpus_1.commit.op_class_0::SimdFloatMultAcc            0      0.00%     74.32% # Class of committed instruction
system.switch_cpus_1.commit.op_class_0::SimdFloatSqrt            0      0.00%     74.32% # Class of committed instruction
system.switch_cpus_1.commit.op_class_0::MemRead     20146501     10.01%     84.34% # Class of committed instruction
system.switch_cpus_1.commit.op_class_0::MemWrite     10794849      5.36%     89.70% # Class of committed instruction
system.switch_cpus_1.commit.op_class_0::FloatMemRead     19525314      9.70%     99.41% # Class of committed instruction
system.switch_cpus_1.commit.op_class_0::FloatMemWrite      1196187      0.59%    100.00% # Class of committed instruction
system.switch_cpus_1.commit.op_class_0::IprAccess            0      0.00%    100.00% # Class of committed instruction
system.switch_cpus_1.commit.op_class_0::InstPrefetch            0      0.00%    100.00% # Class of committed instruction
system.switch_cpus_1.commit.op_class_0::total    201218348                       # Class of committed instruction
system.switch_cpus_1.commit.bw_lim_events     19204493                       # number cycles where commit BW limit reached
system.switch_cpus_1.rob.rob_reads          830939961                       # The number of ROB reads
system.switch_cpus_1.rob.rob_writes         588549629                       # The number of ROB writes
system.switch_cpus_1.timesIdled                  2139                       # Number of times that the entire CPU went into an idle state and unscheduled itself
system.switch_cpus_1.idleCycles                277860                       # Total number of cycles that the CPU has spent unscheduled due to idling
system.switch_cpus_1.committedInsts         200000004                       # Number of Instructions Simulated
system.switch_cpus_1.committedOps           200000004                       # Number of Ops (including micro ops) Simulated
system.switch_cpus_1.cpi                     2.894757                       # CPI: Cycles Per Instruction
system.switch_cpus_1.cpi_total               2.894757                       # CPI: Total CPI of All Threads
system.switch_cpus_1.ipc                     0.345452                       # IPC: Instructions Per Cycle
system.switch_cpus_1.ipc_total               0.345452                       # IPC: Total IPC of All Threads
system.switch_cpus_1.int_regfile_reads      354411869                       # number of integer regfile reads
system.switch_cpus_1.int_regfile_writes     160537030                       # number of integer regfile writes
system.switch_cpus_1.fp_regfile_reads        59513138                       # number of floating regfile reads
system.switch_cpus_1.fp_regfile_writes       46533336                       # number of floating regfile writes
system.switch_cpus_1.misc_regfile_reads           243                       # number of misc regfile reads
system.switch_cpus_1.misc_regfile_writes          204                       # number of misc regfile writes
system.tol3bus.snoop_filter.tot_requests     51976248                       # Total number of requests made to the snoop filter.
system.tol3bus.snoop_filter.hit_single_requests     25985907                       # Number of requests hitting in the snoop filter with a single holder of the requested data.
system.tol3bus.snoop_filter.hit_multi_requests            0                       # Number of requests hitting in the snoop filter with multiple (>1) holders of the requested data.
system.tol3bus.snoop_filter.tot_snoops         419994                       # Total number of snoops made to the snoop filter.
system.tol3bus.snoop_filter.hit_single_snoops       419994                       # Number of snoops hitting in the snoop filter with a single holder of the requested data.
system.tol3bus.snoop_filter.hit_multi_snoops            0                       # Number of snoops hitting in the snoop filter with multiple (>1) holders of the requested data.
system.tol3bus.pwrStateResidencyTicks::UNDEFINED 72956511223569                       # Cumulative time (in ticks) in various power states
system.tol3bus.trans_dist::ReadResp          19570458                       # Transaction distribution
system.tol3bus.trans_dist::WritebackDirty     17814636                       # Transaction distribution
system.tol3bus.trans_dist::CleanEvict        23593676                       # Transaction distribution
system.tol3bus.trans_dist::UpgradeReq              25                       # Transaction distribution
system.tol3bus.trans_dist::UpgradeResp             25                       # Transaction distribution
system.tol3bus.trans_dist::ReadExReq          6419883                       # Transaction distribution
system.tol3bus.trans_dist::ReadExResp         6419883                       # Transaction distribution
system.tol3bus.trans_dist::ReadSharedReq     19570458                       # Transaction distribution
system.tol3bus.pkt_count_system.cpu.l2.mem_side::system.l3.cpu_side     77966614                       # Packet count per connected master and slave (bytes)
system.tol3bus.pkt_size_system.cpu.l2.mem_side::system.l3.cpu_side   2472250560                       # Cumulative packet size per connected master and slave (bytes)
system.tol3bus.snoops                        15422430                       # Total snoops (count)
system.tol3bus.snoopTraffic                 331267968                       # Total snoop traffic (bytes)
system.tol3bus.snoop_fanout::samples         41412796                       # Request fanout histogram
system.tol3bus.snoop_fanout::mean            0.010142                       # Request fanout histogram
system.tol3bus.snoop_fanout::stdev           0.100194                       # Request fanout histogram
system.tol3bus.snoop_fanout::underflows             0      0.00%      0.00% # Request fanout histogram
system.tol3bus.snoop_fanout::0               40992802     98.99%     98.99% # Request fanout histogram
system.tol3bus.snoop_fanout::1                 419994      1.01%    100.00% # Request fanout histogram
system.tol3bus.snoop_fanout::overflows              0      0.00%    100.00% # Request fanout histogram
system.tol3bus.snoop_fanout::min_value              0                       # Request fanout histogram
system.tol3bus.snoop_fanout::max_value              1                       # Request fanout histogram
system.tol3bus.snoop_fanout::total           41412796                       # Request fanout histogram
system.tol3bus.reqLayer0.occupancy        21516735726                       # Layer occupancy (ticks)
system.tol3bus.reqLayer0.utilization              0.7                       # Layer utilization (%)
system.tol3bus.respLayer0.occupancy       17309575431                       # Layer occupancy (ticks)
system.tol3bus.respLayer0.utilization             0.6                       # Layer utilization (%)

---------- End Simulation Statistics   ----------
