
---------- Begin Simulation Statistics ----------
sim_seconds                                  1.026926                       # Number of seconds simulated
sim_ticks                                1026925932114                       # Number of ticks simulated
final_tick                               111353144686371                       # Number of ticks from beginning of simulation (restored from checkpoints and never reset)
sim_freq                                 1000000000000                       # Frequency of simulated ticks
host_inst_rate                                 619742                       # Simulator instruction rate (inst/s)
host_op_rate                                   619742                       # Simulator op (including micro ops) rate (op/s)
host_tick_rate                              530357488                       # Simulator tick rate (ticks/s)
host_mem_usage                                2384944                       # Number of bytes of host memory used
host_seconds                                  1936.29                       # Real time elapsed on the host
sim_insts                                  1200000011                       # Number of instructions simulated
sim_ops                                    1200000011                       # Number of ops (including micro ops) simulated
system.voltage_domain.voltage                       1                       # Voltage in Volts
system.clk_domain.clock                          1000                       # Clock period in ticks
system.mem_ctrls0.pwrStateResidencyTicks::UNDEFINED 111353144686371                       # Cumulative time (in ticks) in various power states
system.mem_ctrls0.bytes_read::cpu.inst            128                       # Number of bytes read from this memory
system.mem_ctrls0.bytes_read::cpu.data            192                       # Number of bytes read from this memory
system.mem_ctrls0.bytes_read::switch_cpus.inst        16704                       # Number of bytes read from this memory
system.mem_ctrls0.bytes_read::switch_cpus.data      2457152                       # Number of bytes read from this memory
system.mem_ctrls0.bytes_read::switch_cpus_1.inst         5184                       # Number of bytes read from this memory
system.mem_ctrls0.bytes_read::switch_cpus_1.data      2067264                       # Number of bytes read from this memory
system.mem_ctrls0.bytes_read::total           4546624                       # Number of bytes read from this memory
system.mem_ctrls0.bytes_inst_read::cpu.inst          128                       # Number of instructions bytes read from this memory
system.mem_ctrls0.bytes_inst_read::switch_cpus.inst        16704                       # Number of instructions bytes read from this memory
system.mem_ctrls0.bytes_inst_read::switch_cpus_1.inst         5184                       # Number of instructions bytes read from this memory
system.mem_ctrls0.bytes_inst_read::total        22016                       # Number of instructions bytes read from this memory
system.mem_ctrls0.bytes_written::writebacks      2381440                       # Number of bytes written to this memory
system.mem_ctrls0.bytes_written::total        2381440                       # Number of bytes written to this memory
system.mem_ctrls0.num_reads::cpu.inst               2                       # Number of read requests responded to by this memory
system.mem_ctrls0.num_reads::cpu.data               3                       # Number of read requests responded to by this memory
system.mem_ctrls0.num_reads::switch_cpus.inst          261                       # Number of read requests responded to by this memory
system.mem_ctrls0.num_reads::switch_cpus.data        38393                       # Number of read requests responded to by this memory
system.mem_ctrls0.num_reads::switch_cpus_1.inst           81                       # Number of read requests responded to by this memory
system.mem_ctrls0.num_reads::switch_cpus_1.data        32301                       # Number of read requests responded to by this memory
system.mem_ctrls0.num_reads::total              71041                       # Number of read requests responded to by this memory
system.mem_ctrls0.num_writes::writebacks        37210                       # Number of write requests responded to by this memory
system.mem_ctrls0.num_writes::total             37210                       # Number of write requests responded to by this memory
system.mem_ctrls0.bw_read::cpu.inst               125                       # Total read bandwidth from this memory (bytes/s)
system.mem_ctrls0.bw_read::cpu.data               187                       # Total read bandwidth from this memory (bytes/s)
system.mem_ctrls0.bw_read::switch_cpus.inst        16266                       # Total read bandwidth from this memory (bytes/s)
system.mem_ctrls0.bw_read::switch_cpus.data      2392726                       # Total read bandwidth from this memory (bytes/s)
system.mem_ctrls0.bw_read::switch_cpus_1.inst         5048                       # Total read bandwidth from this memory (bytes/s)
system.mem_ctrls0.bw_read::switch_cpus_1.data      2013060                       # Total read bandwidth from this memory (bytes/s)
system.mem_ctrls0.bw_read::total              4427412                       # Total read bandwidth from this memory (bytes/s)
system.mem_ctrls0.bw_inst_read::cpu.inst          125                       # Instruction read bandwidth from this memory (bytes/s)
system.mem_ctrls0.bw_inst_read::switch_cpus.inst        16266                       # Instruction read bandwidth from this memory (bytes/s)
system.mem_ctrls0.bw_inst_read::switch_cpus_1.inst         5048                       # Instruction read bandwidth from this memory (bytes/s)
system.mem_ctrls0.bw_inst_read::total           21439                       # Instruction read bandwidth from this memory (bytes/s)
system.mem_ctrls0.bw_write::writebacks        2318999                       # Write bandwidth from this memory (bytes/s)
system.mem_ctrls0.bw_write::total             2318999                       # Write bandwidth from this memory (bytes/s)
system.mem_ctrls0.bw_total::writebacks        2318999                       # Total bandwidth to/from this memory (bytes/s)
system.mem_ctrls0.bw_total::cpu.inst              125                       # Total bandwidth to/from this memory (bytes/s)
system.mem_ctrls0.bw_total::cpu.data              187                       # Total bandwidth to/from this memory (bytes/s)
system.mem_ctrls0.bw_total::switch_cpus.inst        16266                       # Total bandwidth to/from this memory (bytes/s)
system.mem_ctrls0.bw_total::switch_cpus.data      2392726                       # Total bandwidth to/from this memory (bytes/s)
system.mem_ctrls0.bw_total::switch_cpus_1.inst         5048                       # Total bandwidth to/from this memory (bytes/s)
system.mem_ctrls0.bw_total::switch_cpus_1.data      2013060                       # Total bandwidth to/from this memory (bytes/s)
system.mem_ctrls0.bw_total::total             6746411                       # Total bandwidth to/from this memory (bytes/s)
system.mem_ctrls0.readReqs                      71041                       # Number of read requests accepted
system.mem_ctrls0.writeReqs                     37210                       # Number of write requests accepted
system.mem_ctrls0.readBursts                    71041                       # Number of DRAM read bursts, including those serviced by the write queue
system.mem_ctrls0.writeBursts                   37210                       # Number of DRAM write bursts, including those merged in the write queue
system.mem_ctrls0.bytesReadDRAM               4543552                       # Total number of bytes read from DRAM
system.mem_ctrls0.bytesReadWrQ                   3072                       # Total number of bytes read from write queue
system.mem_ctrls0.bytesWritten                2380224                       # Total number of bytes written to DRAM
system.mem_ctrls0.bytesReadSys                4546624                       # Total read bytes from the system interface side
system.mem_ctrls0.bytesWrittenSys             2381440                       # Total written bytes from the system interface side
system.mem_ctrls0.servicedByWrQ                    48                       # Number of DRAM read bursts serviced by the write queue
system.mem_ctrls0.mergedWrBursts                    0                       # Number of DRAM write bursts merged with an existing one
system.mem_ctrls0.neitherReadNorWriteReqs            0                       # Number of requests that are neither read nor write
system.mem_ctrls0.perBankRdBursts::0             4408                       # Per bank write bursts
system.mem_ctrls0.perBankRdBursts::1             3744                       # Per bank write bursts
system.mem_ctrls0.perBankRdBursts::2             4080                       # Per bank write bursts
system.mem_ctrls0.perBankRdBursts::3             5166                       # Per bank write bursts
system.mem_ctrls0.perBankRdBursts::4             5087                       # Per bank write bursts
system.mem_ctrls0.perBankRdBursts::5             4434                       # Per bank write bursts
system.mem_ctrls0.perBankRdBursts::6             4039                       # Per bank write bursts
system.mem_ctrls0.perBankRdBursts::7             4571                       # Per bank write bursts
system.mem_ctrls0.perBankRdBursts::8             4428                       # Per bank write bursts
system.mem_ctrls0.perBankRdBursts::9             3884                       # Per bank write bursts
system.mem_ctrls0.perBankRdBursts::10            4497                       # Per bank write bursts
system.mem_ctrls0.perBankRdBursts::11            4833                       # Per bank write bursts
system.mem_ctrls0.perBankRdBursts::12            5024                       # Per bank write bursts
system.mem_ctrls0.perBankRdBursts::13            4315                       # Per bank write bursts
system.mem_ctrls0.perBankRdBursts::14            4123                       # Per bank write bursts
system.mem_ctrls0.perBankRdBursts::15            4360                       # Per bank write bursts
system.mem_ctrls0.perBankWrBursts::0             2287                       # Per bank write bursts
system.mem_ctrls0.perBankWrBursts::1             1584                       # Per bank write bursts
system.mem_ctrls0.perBankWrBursts::2             2070                       # Per bank write bursts
system.mem_ctrls0.perBankWrBursts::3             2947                       # Per bank write bursts
system.mem_ctrls0.perBankWrBursts::4             3038                       # Per bank write bursts
system.mem_ctrls0.perBankWrBursts::5             2438                       # Per bank write bursts
system.mem_ctrls0.perBankWrBursts::6             1859                       # Per bank write bursts
system.mem_ctrls0.perBankWrBursts::7             2414                       # Per bank write bursts
system.mem_ctrls0.perBankWrBursts::8             2295                       # Per bank write bursts
system.mem_ctrls0.perBankWrBursts::9             1796                       # Per bank write bursts
system.mem_ctrls0.perBankWrBursts::10            2308                       # Per bank write bursts
system.mem_ctrls0.perBankWrBursts::11            2833                       # Per bank write bursts
system.mem_ctrls0.perBankWrBursts::12            2854                       # Per bank write bursts
system.mem_ctrls0.perBankWrBursts::13            2157                       # Per bank write bursts
system.mem_ctrls0.perBankWrBursts::14            2003                       # Per bank write bursts
system.mem_ctrls0.perBankWrBursts::15            2308                       # Per bank write bursts
system.mem_ctrls0.numRdRetry                        0                       # Number of times read queue was full causing retry
system.mem_ctrls0.numWrRetry                        0                       # Number of times write queue was full causing retry
system.mem_ctrls0.totGap                 1026925452594                       # Total gap between requests
system.mem_ctrls0.readPktSize::0                    0                       # Read request sizes (log2)
system.mem_ctrls0.readPktSize::1                    0                       # Read request sizes (log2)
system.mem_ctrls0.readPktSize::2                    0                       # Read request sizes (log2)
system.mem_ctrls0.readPktSize::3                    0                       # Read request sizes (log2)
system.mem_ctrls0.readPktSize::4                    0                       # Read request sizes (log2)
system.mem_ctrls0.readPktSize::5                    0                       # Read request sizes (log2)
system.mem_ctrls0.readPktSize::6                71041                       # Read request sizes (log2)
system.mem_ctrls0.writePktSize::0                   0                       # Write request sizes (log2)
system.mem_ctrls0.writePktSize::1                   0                       # Write request sizes (log2)
system.mem_ctrls0.writePktSize::2                   0                       # Write request sizes (log2)
system.mem_ctrls0.writePktSize::3                   0                       # Write request sizes (log2)
system.mem_ctrls0.writePktSize::4                   0                       # Write request sizes (log2)
system.mem_ctrls0.writePktSize::5                   0                       # Write request sizes (log2)
system.mem_ctrls0.writePktSize::6               37210                       # Write request sizes (log2)
system.mem_ctrls0.rdQLenPdf::0                  66170                       # What read queue length does an incoming req see
system.mem_ctrls0.rdQLenPdf::1                   4641                       # What read queue length does an incoming req see
system.mem_ctrls0.rdQLenPdf::2                    180                       # What read queue length does an incoming req see
system.mem_ctrls0.rdQLenPdf::3                      2                       # What read queue length does an incoming req see
system.mem_ctrls0.rdQLenPdf::4                      0                       # What read queue length does an incoming req see
system.mem_ctrls0.rdQLenPdf::5                      0                       # What read queue length does an incoming req see
system.mem_ctrls0.rdQLenPdf::6                      0                       # What read queue length does an incoming req see
system.mem_ctrls0.rdQLenPdf::7                      0                       # What read queue length does an incoming req see
system.mem_ctrls0.rdQLenPdf::8                      0                       # What read queue length does an incoming req see
system.mem_ctrls0.rdQLenPdf::9                      0                       # What read queue length does an incoming req see
system.mem_ctrls0.rdQLenPdf::10                     0                       # What read queue length does an incoming req see
system.mem_ctrls0.rdQLenPdf::11                     0                       # What read queue length does an incoming req see
system.mem_ctrls0.rdQLenPdf::12                     0                       # What read queue length does an incoming req see
system.mem_ctrls0.rdQLenPdf::13                     0                       # What read queue length does an incoming req see
system.mem_ctrls0.rdQLenPdf::14                     0                       # What read queue length does an incoming req see
system.mem_ctrls0.rdQLenPdf::15                     0                       # What read queue length does an incoming req see
system.mem_ctrls0.rdQLenPdf::16                     0                       # What read queue length does an incoming req see
system.mem_ctrls0.rdQLenPdf::17                     0                       # What read queue length does an incoming req see
system.mem_ctrls0.rdQLenPdf::18                     0                       # What read queue length does an incoming req see
system.mem_ctrls0.rdQLenPdf::19                     0                       # What read queue length does an incoming req see
system.mem_ctrls0.rdQLenPdf::20                     0                       # What read queue length does an incoming req see
system.mem_ctrls0.rdQLenPdf::21                     0                       # What read queue length does an incoming req see
system.mem_ctrls0.rdQLenPdf::22                     0                       # What read queue length does an incoming req see
system.mem_ctrls0.rdQLenPdf::23                     0                       # What read queue length does an incoming req see
system.mem_ctrls0.rdQLenPdf::24                     0                       # What read queue length does an incoming req see
system.mem_ctrls0.rdQLenPdf::25                     0                       # What read queue length does an incoming req see
system.mem_ctrls0.rdQLenPdf::26                     0                       # What read queue length does an incoming req see
system.mem_ctrls0.rdQLenPdf::27                     0                       # What read queue length does an incoming req see
system.mem_ctrls0.rdQLenPdf::28                     0                       # What read queue length does an incoming req see
system.mem_ctrls0.rdQLenPdf::29                     0                       # What read queue length does an incoming req see
system.mem_ctrls0.rdQLenPdf::30                     0                       # What read queue length does an incoming req see
system.mem_ctrls0.rdQLenPdf::31                     0                       # What read queue length does an incoming req see
system.mem_ctrls0.wrQLenPdf::0                      2                       # What write queue length does an incoming req see
system.mem_ctrls0.wrQLenPdf::1                      2                       # What write queue length does an incoming req see
system.mem_ctrls0.wrQLenPdf::2                      2                       # What write queue length does an incoming req see
system.mem_ctrls0.wrQLenPdf::3                      2                       # What write queue length does an incoming req see
system.mem_ctrls0.wrQLenPdf::4                      2                       # What write queue length does an incoming req see
system.mem_ctrls0.wrQLenPdf::5                      2                       # What write queue length does an incoming req see
system.mem_ctrls0.wrQLenPdf::6                      2                       # What write queue length does an incoming req see
system.mem_ctrls0.wrQLenPdf::7                      2                       # What write queue length does an incoming req see
system.mem_ctrls0.wrQLenPdf::8                      2                       # What write queue length does an incoming req see
system.mem_ctrls0.wrQLenPdf::9                      2                       # What write queue length does an incoming req see
system.mem_ctrls0.wrQLenPdf::10                     2                       # What write queue length does an incoming req see
system.mem_ctrls0.wrQLenPdf::11                     2                       # What write queue length does an incoming req see
system.mem_ctrls0.wrQLenPdf::12                     2                       # What write queue length does an incoming req see
system.mem_ctrls0.wrQLenPdf::13                     2                       # What write queue length does an incoming req see
system.mem_ctrls0.wrQLenPdf::14                     2                       # What write queue length does an incoming req see
system.mem_ctrls0.wrQLenPdf::15                  1759                       # What write queue length does an incoming req see
system.mem_ctrls0.wrQLenPdf::16                  1865                       # What write queue length does an incoming req see
system.mem_ctrls0.wrQLenPdf::17                  2053                       # What write queue length does an incoming req see
system.mem_ctrls0.wrQLenPdf::18                  2089                       # What write queue length does an incoming req see
system.mem_ctrls0.wrQLenPdf::19                  2093                       # What write queue length does an incoming req see
system.mem_ctrls0.wrQLenPdf::20                  2097                       # What write queue length does an incoming req see
system.mem_ctrls0.wrQLenPdf::21                  2092                       # What write queue length does an incoming req see
system.mem_ctrls0.wrQLenPdf::22                  2099                       # What write queue length does an incoming req see
system.mem_ctrls0.wrQLenPdf::23                  2120                       # What write queue length does an incoming req see
system.mem_ctrls0.wrQLenPdf::24                  2124                       # What write queue length does an incoming req see
system.mem_ctrls0.wrQLenPdf::25                  2129                       # What write queue length does an incoming req see
system.mem_ctrls0.wrQLenPdf::26                  2092                       # What write queue length does an incoming req see
system.mem_ctrls0.wrQLenPdf::27                  2090                       # What write queue length does an incoming req see
system.mem_ctrls0.wrQLenPdf::28                  2088                       # What write queue length does an incoming req see
system.mem_ctrls0.wrQLenPdf::29                  2099                       # What write queue length does an incoming req see
system.mem_ctrls0.wrQLenPdf::30                  2129                       # What write queue length does an incoming req see
system.mem_ctrls0.wrQLenPdf::31                  2062                       # What write queue length does an incoming req see
system.mem_ctrls0.wrQLenPdf::32                  2062                       # What write queue length does an incoming req see
system.mem_ctrls0.wrQLenPdf::33                    18                       # What write queue length does an incoming req see
system.mem_ctrls0.wrQLenPdf::34                    11                       # What write queue length does an incoming req see
system.mem_ctrls0.wrQLenPdf::35                     4                       # What write queue length does an incoming req see
system.mem_ctrls0.wrQLenPdf::36                     3                       # What write queue length does an incoming req see
system.mem_ctrls0.wrQLenPdf::37                     1                       # What write queue length does an incoming req see
system.mem_ctrls0.wrQLenPdf::38                     1                       # What write queue length does an incoming req see
system.mem_ctrls0.wrQLenPdf::39                     0                       # What write queue length does an incoming req see
system.mem_ctrls0.wrQLenPdf::40                     0                       # What write queue length does an incoming req see
system.mem_ctrls0.wrQLenPdf::41                     0                       # What write queue length does an incoming req see
system.mem_ctrls0.wrQLenPdf::42                     0                       # What write queue length does an incoming req see
system.mem_ctrls0.wrQLenPdf::43                     0                       # What write queue length does an incoming req see
system.mem_ctrls0.wrQLenPdf::44                     0                       # What write queue length does an incoming req see
system.mem_ctrls0.wrQLenPdf::45                     0                       # What write queue length does an incoming req see
system.mem_ctrls0.wrQLenPdf::46                     0                       # What write queue length does an incoming req see
system.mem_ctrls0.wrQLenPdf::47                     0                       # What write queue length does an incoming req see
system.mem_ctrls0.wrQLenPdf::48                     0                       # What write queue length does an incoming req see
system.mem_ctrls0.wrQLenPdf::49                     0                       # What write queue length does an incoming req see
system.mem_ctrls0.wrQLenPdf::50                     0                       # What write queue length does an incoming req see
system.mem_ctrls0.wrQLenPdf::51                     0                       # What write queue length does an incoming req see
system.mem_ctrls0.wrQLenPdf::52                     0                       # What write queue length does an incoming req see
system.mem_ctrls0.wrQLenPdf::53                     0                       # What write queue length does an incoming req see
system.mem_ctrls0.wrQLenPdf::54                     0                       # What write queue length does an incoming req see
system.mem_ctrls0.wrQLenPdf::55                     0                       # What write queue length does an incoming req see
system.mem_ctrls0.wrQLenPdf::56                     0                       # What write queue length does an incoming req see
system.mem_ctrls0.wrQLenPdf::57                     0                       # What write queue length does an incoming req see
system.mem_ctrls0.wrQLenPdf::58                     0                       # What write queue length does an incoming req see
system.mem_ctrls0.wrQLenPdf::59                     0                       # What write queue length does an incoming req see
system.mem_ctrls0.wrQLenPdf::60                     0                       # What write queue length does an incoming req see
system.mem_ctrls0.wrQLenPdf::61                     0                       # What write queue length does an incoming req see
system.mem_ctrls0.wrQLenPdf::62                     0                       # What write queue length does an incoming req see
system.mem_ctrls0.wrQLenPdf::63                     0                       # What write queue length does an incoming req see
system.mem_ctrls0.bytesPerActivate::samples        51447                       # Bytes accessed per row activation
system.mem_ctrls0.bytesPerActivate::mean   134.580753                       # Bytes accessed per row activation
system.mem_ctrls0.bytesPerActivate::gmean   109.927698                       # Bytes accessed per row activation
system.mem_ctrls0.bytesPerActivate::stdev   111.506523                       # Bytes accessed per row activation
system.mem_ctrls0.bytesPerActivate::0-127        23101     44.90%     44.90% # Bytes accessed per row activation
system.mem_ctrls0.bytesPerActivate::128-255        23810     46.28%     91.18% # Bytes accessed per row activation
system.mem_ctrls0.bytesPerActivate::256-383         2073      4.03%     95.21% # Bytes accessed per row activation
system.mem_ctrls0.bytesPerActivate::384-511         1121      2.18%     97.39% # Bytes accessed per row activation
system.mem_ctrls0.bytesPerActivate::512-639          642      1.25%     98.64% # Bytes accessed per row activation
system.mem_ctrls0.bytesPerActivate::640-767          408      0.79%     99.43% # Bytes accessed per row activation
system.mem_ctrls0.bytesPerActivate::768-895          218      0.42%     99.86% # Bytes accessed per row activation
system.mem_ctrls0.bytesPerActivate::896-1023           59      0.11%     99.97% # Bytes accessed per row activation
system.mem_ctrls0.bytesPerActivate::1024-1151           15      0.03%    100.00% # Bytes accessed per row activation
system.mem_ctrls0.bytesPerActivate::total        51447                       # Bytes accessed per row activation
system.mem_ctrls0.rdPerTurnAround::samples         2063                       # Reads before turning the bus around for writes
system.mem_ctrls0.rdPerTurnAround::mean     34.412506                       # Reads before turning the bus around for writes
system.mem_ctrls0.rdPerTurnAround::stdev   703.917599                       # Reads before turning the bus around for writes
system.mem_ctrls0.rdPerTurnAround::0-1023         2062     99.95%     99.95% # Reads before turning the bus around for writes
system.mem_ctrls0.rdPerTurnAround::31744-32767            1      0.05%    100.00% # Reads before turning the bus around for writes
system.mem_ctrls0.rdPerTurnAround::total         2063                       # Reads before turning the bus around for writes
system.mem_ctrls0.wrPerTurnAround::samples         2063                       # Writes before turning the bus around for reads
system.mem_ctrls0.wrPerTurnAround::mean     18.027630                       # Writes before turning the bus around for reads
system.mem_ctrls0.wrPerTurnAround::gmean    18.000337                       # Writes before turning the bus around for reads
system.mem_ctrls0.wrPerTurnAround::stdev     0.995973                       # Writes before turning the bus around for reads
system.mem_ctrls0.wrPerTurnAround::16             227     11.00%     11.00% # Writes before turning the bus around for reads
system.mem_ctrls0.wrPerTurnAround::17              68      3.30%     14.30% # Writes before turning the bus around for reads
system.mem_ctrls0.wrPerTurnAround::18            1343     65.10%     79.40% # Writes before turning the bus around for reads
system.mem_ctrls0.wrPerTurnAround::19             322     15.61%     95.01% # Writes before turning the bus around for reads
system.mem_ctrls0.wrPerTurnAround::20              75      3.64%     98.64% # Writes before turning the bus around for reads
system.mem_ctrls0.wrPerTurnAround::21              16      0.78%     99.42% # Writes before turning the bus around for reads
system.mem_ctrls0.wrPerTurnAround::22               6      0.29%     99.71% # Writes before turning the bus around for reads
system.mem_ctrls0.wrPerTurnAround::23               3      0.15%     99.85% # Writes before turning the bus around for reads
system.mem_ctrls0.wrPerTurnAround::24               1      0.05%     99.90% # Writes before turning the bus around for reads
system.mem_ctrls0.wrPerTurnAround::25               2      0.10%    100.00% # Writes before turning the bus around for reads
system.mem_ctrls0.wrPerTurnAround::total         2063                       # Writes before turning the bus around for reads
system.mem_ctrls0.totQLat                  1356001966                       # Total ticks spent queuing
system.mem_ctrls0.totMemAccLat             2687120716                       # Total ticks spent from burst creation until serviced by the DRAM
system.mem_ctrls0.totBusLat                 354965000                       # Total ticks spent in databus transfers
system.mem_ctrls0.avgQLat                    19100.50                       # Average queueing delay per DRAM burst
system.mem_ctrls0.avgBusLat                   5000.00                       # Average bus latency per DRAM burst
system.mem_ctrls0.avgMemAccLat               37850.50                       # Average memory access latency per DRAM burst
system.mem_ctrls0.avgRdBW                        4.42                       # Average DRAM read bandwidth in MiByte/s
system.mem_ctrls0.avgWrBW                        2.32                       # Average achieved write bandwidth in MiByte/s
system.mem_ctrls0.avgRdBWSys                     4.43                       # Average system read bandwidth in MiByte/s
system.mem_ctrls0.avgWrBWSys                     2.32                       # Average system write bandwidth in MiByte/s
system.mem_ctrls0.peakBW                     12800.00                       # Theoretical peak bandwidth in MiByte/s
system.mem_ctrls0.busUtil                        0.05                       # Data bus utilization in percentage
system.mem_ctrls0.busUtilRead                    0.03                       # Data bus utilization in percentage for reads
system.mem_ctrls0.busUtilWrite                   0.02                       # Data bus utilization in percentage for writes
system.mem_ctrls0.avgRdQLen                      1.00                       # Average read queue length when enqueuing
system.mem_ctrls0.avgWrQLen                      0.80                       # Average write queue length when enqueuing
system.mem_ctrls0.readRowHits                   45734                       # Number of row buffer hits during reads
system.mem_ctrls0.writeRowHits                  11003                       # Number of row buffer hits during writes
system.mem_ctrls0.readRowHitRate                64.42                       # Row buffer hit rate for reads
system.mem_ctrls0.writeRowHitRate               29.57                       # Row buffer hit rate for writes
system.mem_ctrls0.avgGap                   9486521.63                       # Average gap between requests
system.mem_ctrls0.pageHitRate                   52.44                       # Row buffer hit rate, read and write combined
system.mem_ctrls0_0.actEnergy               183455160                       # Energy for activate commands per rank (pJ)
system.mem_ctrls0_0.preEnergy                97508730                       # Energy for precharge commands per rank (pJ)
system.mem_ctrls0_0.readEnergy              253677060                       # Energy for read commands per rank (pJ)
system.mem_ctrls0_0.writeEnergy              97285140                       # Energy for write commands per rank (pJ)
system.mem_ctrls0_0.refreshEnergy        4840290000.000001                       # Energy for refresh commands per rank (pJ)
system.mem_ctrls0_0.actBackEnergy          2311610490                       # Energy for active background per rank (pJ)
system.mem_ctrls0_0.preBackEnergy           131857920                       # Energy for precharge background per rank (pJ)
system.mem_ctrls0_0.actPowerDownEnergy    18875117940                       # Energy for active power-down per rank (pJ)
system.mem_ctrls0_0.prePowerDownEnergy     4714362240                       # Energy for precharge power-down per rank (pJ)
system.mem_ctrls0_0.selfRefreshEnergy    232452779565                       # Energy for self refresh per rank (pJ)
system.mem_ctrls0_0.totalEnergy          263958585135                       # Total energy per rank (pJ)
system.mem_ctrls0_0.averagePower           257.037608                       # Core power per rank (mW)
system.mem_ctrls0_0.totalIdleTime        1021483379231                       # Total Idle time Per DRAM Rank
system.mem_ctrls0_0.memoryStateTime::IDLE    130780453                       # Time in different power states
system.mem_ctrls0_0.memoryStateTime::REF   2049402000                       # Time in different power states
system.mem_ctrls0_0.memoryStateTime::SREF 967842024364                       # Time in different power states
system.mem_ctrls0_0.memoryStateTime::PRE_PDN  12277302719                       # Time in different power states
system.mem_ctrls0_0.memoryStateTime::ACT   3232478687                       # Time in different power states
system.mem_ctrls0_0.memoryStateTime::ACT_PDN  41393943891                       # Time in different power states
system.mem_ctrls0_1.actEnergy               183876420                       # Energy for activate commands per rank (pJ)
system.mem_ctrls0_1.preEnergy                97732635                       # Energy for precharge commands per rank (pJ)
system.mem_ctrls0_1.readEnergy              253212960                       # Energy for read commands per rank (pJ)
system.mem_ctrls0_1.writeEnergy              96851880                       # Energy for write commands per rank (pJ)
system.mem_ctrls0_1.refreshEnergy        4749937920.000001                       # Energy for refresh commands per rank (pJ)
system.mem_ctrls0_1.actBackEnergy          2394057000                       # Energy for active background per rank (pJ)
system.mem_ctrls0_1.preBackEnergy           125116320                       # Energy for precharge background per rank (pJ)
system.mem_ctrls0_1.actPowerDownEnergy    18675242310                       # Energy for active power-down per rank (pJ)
system.mem_ctrls0_1.prePowerDownEnergy     4575482880                       # Energy for precharge power-down per rank (pJ)
system.mem_ctrls0_1.selfRefreshEnergy    232566881955                       # Energy for self refresh per rank (pJ)
system.mem_ctrls0_1.totalEnergy          263718889800                       # Total energy per rank (pJ)
system.mem_ctrls0_1.averagePower           256.804197                       # Core power per rank (mW)
system.mem_ctrls0_1.totalIdleTime        1021320434642                       # Total Idle time Per DRAM Rank
system.mem_ctrls0_1.memoryStateTime::IDLE    115750157                       # Time in different power states
system.mem_ctrls0_1.memoryStateTime::REF   2010774000                       # Time in different power states
system.mem_ctrls0_1.memoryStateTime::SREF 968479085614                       # Time in different power states
system.mem_ctrls0_1.memoryStateTime::PRE_PDN  11916295918                       # Time in different power states
system.mem_ctrls0_1.memoryStateTime::ACT   3449087899                       # Time in different power states
system.mem_ctrls0_1.memoryStateTime::ACT_PDN  40954938526                       # Time in different power states
system.mem_ctrls1.pwrStateResidencyTicks::UNDEFINED 111353144686371                       # Cumulative time (in ticks) in various power states
system.mem_ctrls1.bytes_read::cpu.inst             64                       # Number of bytes read from this memory
system.mem_ctrls1.bytes_read::cpu.data             64                       # Number of bytes read from this memory
system.mem_ctrls1.bytes_read::switch_cpus.inst        16768                       # Number of bytes read from this memory
system.mem_ctrls1.bytes_read::switch_cpus.data      2455296                       # Number of bytes read from this memory
system.mem_ctrls1.bytes_read::switch_cpus_1.inst         4992                       # Number of bytes read from this memory
system.mem_ctrls1.bytes_read::switch_cpus_1.data      2057216                       # Number of bytes read from this memory
system.mem_ctrls1.bytes_read::total           4534400                       # Number of bytes read from this memory
system.mem_ctrls1.bytes_inst_read::cpu.inst           64                       # Number of instructions bytes read from this memory
system.mem_ctrls1.bytes_inst_read::switch_cpus.inst        16768                       # Number of instructions bytes read from this memory
system.mem_ctrls1.bytes_inst_read::switch_cpus_1.inst         4992                       # Number of instructions bytes read from this memory
system.mem_ctrls1.bytes_inst_read::total        21824                       # Number of instructions bytes read from this memory
system.mem_ctrls1.bytes_written::writebacks      2370240                       # Number of bytes written to this memory
system.mem_ctrls1.bytes_written::total        2370240                       # Number of bytes written to this memory
system.mem_ctrls1.num_reads::cpu.inst               1                       # Number of read requests responded to by this memory
system.mem_ctrls1.num_reads::cpu.data               1                       # Number of read requests responded to by this memory
system.mem_ctrls1.num_reads::switch_cpus.inst          262                       # Number of read requests responded to by this memory
system.mem_ctrls1.num_reads::switch_cpus.data        38364                       # Number of read requests responded to by this memory
system.mem_ctrls1.num_reads::switch_cpus_1.inst           78                       # Number of read requests responded to by this memory
system.mem_ctrls1.num_reads::switch_cpus_1.data        32144                       # Number of read requests responded to by this memory
system.mem_ctrls1.num_reads::total              70850                       # Number of read requests responded to by this memory
system.mem_ctrls1.num_writes::writebacks        37035                       # Number of write requests responded to by this memory
system.mem_ctrls1.num_writes::total             37035                       # Number of write requests responded to by this memory
system.mem_ctrls1.bw_read::cpu.inst                62                       # Total read bandwidth from this memory (bytes/s)
system.mem_ctrls1.bw_read::cpu.data                62                       # Total read bandwidth from this memory (bytes/s)
system.mem_ctrls1.bw_read::switch_cpus.inst        16328                       # Total read bandwidth from this memory (bytes/s)
system.mem_ctrls1.bw_read::switch_cpus.data      2390918                       # Total read bandwidth from this memory (bytes/s)
system.mem_ctrls1.bw_read::switch_cpus_1.inst         4861                       # Total read bandwidth from this memory (bytes/s)
system.mem_ctrls1.bw_read::switch_cpus_1.data      2003276                       # Total read bandwidth from this memory (bytes/s)
system.mem_ctrls1.bw_read::total              4415508                       # Total read bandwidth from this memory (bytes/s)
system.mem_ctrls1.bw_inst_read::cpu.inst           62                       # Instruction read bandwidth from this memory (bytes/s)
system.mem_ctrls1.bw_inst_read::switch_cpus.inst        16328                       # Instruction read bandwidth from this memory (bytes/s)
system.mem_ctrls1.bw_inst_read::switch_cpus_1.inst         4861                       # Instruction read bandwidth from this memory (bytes/s)
system.mem_ctrls1.bw_inst_read::total           21252                       # Instruction read bandwidth from this memory (bytes/s)
system.mem_ctrls1.bw_write::writebacks        2308092                       # Write bandwidth from this memory (bytes/s)
system.mem_ctrls1.bw_write::total             2308092                       # Write bandwidth from this memory (bytes/s)
system.mem_ctrls1.bw_total::writebacks        2308092                       # Total bandwidth to/from this memory (bytes/s)
system.mem_ctrls1.bw_total::cpu.inst               62                       # Total bandwidth to/from this memory (bytes/s)
system.mem_ctrls1.bw_total::cpu.data               62                       # Total bandwidth to/from this memory (bytes/s)
system.mem_ctrls1.bw_total::switch_cpus.inst        16328                       # Total bandwidth to/from this memory (bytes/s)
system.mem_ctrls1.bw_total::switch_cpus.data      2390918                       # Total bandwidth to/from this memory (bytes/s)
system.mem_ctrls1.bw_total::switch_cpus_1.inst         4861                       # Total bandwidth to/from this memory (bytes/s)
system.mem_ctrls1.bw_total::switch_cpus_1.data      2003276                       # Total bandwidth to/from this memory (bytes/s)
system.mem_ctrls1.bw_total::total             6723601                       # Total bandwidth to/from this memory (bytes/s)
system.mem_ctrls1.readReqs                      70850                       # Number of read requests accepted
system.mem_ctrls1.writeReqs                     37035                       # Number of write requests accepted
system.mem_ctrls1.readBursts                    70850                       # Number of DRAM read bursts, including those serviced by the write queue
system.mem_ctrls1.writeBursts                   37035                       # Number of DRAM write bursts, including those merged in the write queue
system.mem_ctrls1.bytesReadDRAM               4531712                       # Total number of bytes read from DRAM
system.mem_ctrls1.bytesReadWrQ                   2688                       # Total number of bytes read from write queue
system.mem_ctrls1.bytesWritten                2368192                       # Total number of bytes written to DRAM
system.mem_ctrls1.bytesReadSys                4534400                       # Total read bytes from the system interface side
system.mem_ctrls1.bytesWrittenSys             2370240                       # Total written bytes from the system interface side
system.mem_ctrls1.servicedByWrQ                    42                       # Number of DRAM read bursts serviced by the write queue
system.mem_ctrls1.mergedWrBursts                    0                       # Number of DRAM write bursts merged with an existing one
system.mem_ctrls1.neitherReadNorWriteReqs            0                       # Number of requests that are neither read nor write
system.mem_ctrls1.perBankRdBursts::0             4368                       # Per bank write bursts
system.mem_ctrls1.perBankRdBursts::1             3684                       # Per bank write bursts
system.mem_ctrls1.perBankRdBursts::2             4140                       # Per bank write bursts
system.mem_ctrls1.perBankRdBursts::3             5076                       # Per bank write bursts
system.mem_ctrls1.perBankRdBursts::4             5050                       # Per bank write bursts
system.mem_ctrls1.perBankRdBursts::5             4477                       # Per bank write bursts
system.mem_ctrls1.perBankRdBursts::6             4036                       # Per bank write bursts
system.mem_ctrls1.perBankRdBursts::7             4649                       # Per bank write bursts
system.mem_ctrls1.perBankRdBursts::8             4454                       # Per bank write bursts
system.mem_ctrls1.perBankRdBursts::9             3903                       # Per bank write bursts
system.mem_ctrls1.perBankRdBursts::10            4430                       # Per bank write bursts
system.mem_ctrls1.perBankRdBursts::11            4724                       # Per bank write bursts
system.mem_ctrls1.perBankRdBursts::12            5025                       # Per bank write bursts
system.mem_ctrls1.perBankRdBursts::13            4321                       # Per bank write bursts
system.mem_ctrls1.perBankRdBursts::14            4110                       # Per bank write bursts
system.mem_ctrls1.perBankRdBursts::15            4361                       # Per bank write bursts
system.mem_ctrls1.perBankWrBursts::0             2260                       # Per bank write bursts
system.mem_ctrls1.perBankWrBursts::1             1538                       # Per bank write bursts
system.mem_ctrls1.perBankWrBursts::2             2122                       # Per bank write bursts
system.mem_ctrls1.perBankWrBursts::3             2827                       # Per bank write bursts
system.mem_ctrls1.perBankWrBursts::4             3041                       # Per bank write bursts
system.mem_ctrls1.perBankWrBursts::5             2429                       # Per bank write bursts
system.mem_ctrls1.perBankWrBursts::6             1872                       # Per bank write bursts
system.mem_ctrls1.perBankWrBursts::7             2502                       # Per bank write bursts
system.mem_ctrls1.perBankWrBursts::8             2323                       # Per bank write bursts
system.mem_ctrls1.perBankWrBursts::9             1828                       # Per bank write bursts
system.mem_ctrls1.perBankWrBursts::10            2244                       # Per bank write bursts
system.mem_ctrls1.perBankWrBursts::11            2688                       # Per bank write bursts
system.mem_ctrls1.perBankWrBursts::12            2843                       # Per bank write bursts
system.mem_ctrls1.perBankWrBursts::13            2140                       # Per bank write bursts
system.mem_ctrls1.perBankWrBursts::14            2022                       # Per bank write bursts
system.mem_ctrls1.perBankWrBursts::15            2324                       # Per bank write bursts
system.mem_ctrls1.numRdRetry                        0                       # Number of times read queue was full causing retry
system.mem_ctrls1.numWrRetry                        0                       # Number of times write queue was full causing retry
system.mem_ctrls1.totGap                 1026919707678                       # Total gap between requests
system.mem_ctrls1.readPktSize::0                    0                       # Read request sizes (log2)
system.mem_ctrls1.readPktSize::1                    0                       # Read request sizes (log2)
system.mem_ctrls1.readPktSize::2                    0                       # Read request sizes (log2)
system.mem_ctrls1.readPktSize::3                    0                       # Read request sizes (log2)
system.mem_ctrls1.readPktSize::4                    0                       # Read request sizes (log2)
system.mem_ctrls1.readPktSize::5                    0                       # Read request sizes (log2)
system.mem_ctrls1.readPktSize::6                70850                       # Read request sizes (log2)
system.mem_ctrls1.writePktSize::0                   0                       # Write request sizes (log2)
system.mem_ctrls1.writePktSize::1                   0                       # Write request sizes (log2)
system.mem_ctrls1.writePktSize::2                   0                       # Write request sizes (log2)
system.mem_ctrls1.writePktSize::3                   0                       # Write request sizes (log2)
system.mem_ctrls1.writePktSize::4                   0                       # Write request sizes (log2)
system.mem_ctrls1.writePktSize::5                   0                       # Write request sizes (log2)
system.mem_ctrls1.writePktSize::6               37035                       # Write request sizes (log2)
system.mem_ctrls1.rdQLenPdf::0                  66005                       # What read queue length does an incoming req see
system.mem_ctrls1.rdQLenPdf::1                   4610                       # What read queue length does an incoming req see
system.mem_ctrls1.rdQLenPdf::2                    192                       # What read queue length does an incoming req see
system.mem_ctrls1.rdQLenPdf::3                      1                       # What read queue length does an incoming req see
system.mem_ctrls1.rdQLenPdf::4                      0                       # What read queue length does an incoming req see
system.mem_ctrls1.rdQLenPdf::5                      0                       # What read queue length does an incoming req see
system.mem_ctrls1.rdQLenPdf::6                      0                       # What read queue length does an incoming req see
system.mem_ctrls1.rdQLenPdf::7                      0                       # What read queue length does an incoming req see
system.mem_ctrls1.rdQLenPdf::8                      0                       # What read queue length does an incoming req see
system.mem_ctrls1.rdQLenPdf::9                      0                       # What read queue length does an incoming req see
system.mem_ctrls1.rdQLenPdf::10                     0                       # What read queue length does an incoming req see
system.mem_ctrls1.rdQLenPdf::11                     0                       # What read queue length does an incoming req see
system.mem_ctrls1.rdQLenPdf::12                     0                       # What read queue length does an incoming req see
system.mem_ctrls1.rdQLenPdf::13                     0                       # What read queue length does an incoming req see
system.mem_ctrls1.rdQLenPdf::14                     0                       # What read queue length does an incoming req see
system.mem_ctrls1.rdQLenPdf::15                     0                       # What read queue length does an incoming req see
system.mem_ctrls1.rdQLenPdf::16                     0                       # What read queue length does an incoming req see
system.mem_ctrls1.rdQLenPdf::17                     0                       # What read queue length does an incoming req see
system.mem_ctrls1.rdQLenPdf::18                     0                       # What read queue length does an incoming req see
system.mem_ctrls1.rdQLenPdf::19                     0                       # What read queue length does an incoming req see
system.mem_ctrls1.rdQLenPdf::20                     0                       # What read queue length does an incoming req see
system.mem_ctrls1.rdQLenPdf::21                     0                       # What read queue length does an incoming req see
system.mem_ctrls1.rdQLenPdf::22                     0                       # What read queue length does an incoming req see
system.mem_ctrls1.rdQLenPdf::23                     0                       # What read queue length does an incoming req see
system.mem_ctrls1.rdQLenPdf::24                     0                       # What read queue length does an incoming req see
system.mem_ctrls1.rdQLenPdf::25                     0                       # What read queue length does an incoming req see
system.mem_ctrls1.rdQLenPdf::26                     0                       # What read queue length does an incoming req see
system.mem_ctrls1.rdQLenPdf::27                     0                       # What read queue length does an incoming req see
system.mem_ctrls1.rdQLenPdf::28                     0                       # What read queue length does an incoming req see
system.mem_ctrls1.rdQLenPdf::29                     0                       # What read queue length does an incoming req see
system.mem_ctrls1.rdQLenPdf::30                     0                       # What read queue length does an incoming req see
system.mem_ctrls1.rdQLenPdf::31                     0                       # What read queue length does an incoming req see
system.mem_ctrls1.wrQLenPdf::0                      2                       # What write queue length does an incoming req see
system.mem_ctrls1.wrQLenPdf::1                      2                       # What write queue length does an incoming req see
system.mem_ctrls1.wrQLenPdf::2                      2                       # What write queue length does an incoming req see
system.mem_ctrls1.wrQLenPdf::3                      2                       # What write queue length does an incoming req see
system.mem_ctrls1.wrQLenPdf::4                      2                       # What write queue length does an incoming req see
system.mem_ctrls1.wrQLenPdf::5                      2                       # What write queue length does an incoming req see
system.mem_ctrls1.wrQLenPdf::6                      2                       # What write queue length does an incoming req see
system.mem_ctrls1.wrQLenPdf::7                      2                       # What write queue length does an incoming req see
system.mem_ctrls1.wrQLenPdf::8                      2                       # What write queue length does an incoming req see
system.mem_ctrls1.wrQLenPdf::9                      2                       # What write queue length does an incoming req see
system.mem_ctrls1.wrQLenPdf::10                     2                       # What write queue length does an incoming req see
system.mem_ctrls1.wrQLenPdf::11                     2                       # What write queue length does an incoming req see
system.mem_ctrls1.wrQLenPdf::12                     2                       # What write queue length does an incoming req see
system.mem_ctrls1.wrQLenPdf::13                     2                       # What write queue length does an incoming req see
system.mem_ctrls1.wrQLenPdf::14                     2                       # What write queue length does an incoming req see
system.mem_ctrls1.wrQLenPdf::15                  1744                       # What write queue length does an incoming req see
system.mem_ctrls1.wrQLenPdf::16                  1834                       # What write queue length does an incoming req see
system.mem_ctrls1.wrQLenPdf::17                  2059                       # What write queue length does an incoming req see
system.mem_ctrls1.wrQLenPdf::18                  2077                       # What write queue length does an incoming req see
system.mem_ctrls1.wrQLenPdf::19                  2085                       # What write queue length does an incoming req see
system.mem_ctrls1.wrQLenPdf::20                  2088                       # What write queue length does an incoming req see
system.mem_ctrls1.wrQLenPdf::21                  2092                       # What write queue length does an incoming req see
system.mem_ctrls1.wrQLenPdf::22                  2103                       # What write queue length does an incoming req see
system.mem_ctrls1.wrQLenPdf::23                  2120                       # What write queue length does an incoming req see
system.mem_ctrls1.wrQLenPdf::24                  2104                       # What write queue length does an incoming req see
system.mem_ctrls1.wrQLenPdf::25                  2122                       # What write queue length does an incoming req see
system.mem_ctrls1.wrQLenPdf::26                  2091                       # What write queue length does an incoming req see
system.mem_ctrls1.wrQLenPdf::27                  2080                       # What write queue length does an incoming req see
system.mem_ctrls1.wrQLenPdf::28                  2073                       # What write queue length does an incoming req see
system.mem_ctrls1.wrQLenPdf::29                  2089                       # What write queue length does an incoming req see
system.mem_ctrls1.wrQLenPdf::30                  2107                       # What write queue length does an incoming req see
system.mem_ctrls1.wrQLenPdf::31                  2058                       # What write queue length does an incoming req see
system.mem_ctrls1.wrQLenPdf::32                  2056                       # What write queue length does an incoming req see
system.mem_ctrls1.wrQLenPdf::33                    15                       # What write queue length does an incoming req see
system.mem_ctrls1.wrQLenPdf::34                     6                       # What write queue length does an incoming req see
system.mem_ctrls1.wrQLenPdf::35                     1                       # What write queue length does an incoming req see
system.mem_ctrls1.wrQLenPdf::36                     1                       # What write queue length does an incoming req see
system.mem_ctrls1.wrQLenPdf::37                     0                       # What write queue length does an incoming req see
system.mem_ctrls1.wrQLenPdf::38                     0                       # What write queue length does an incoming req see
system.mem_ctrls1.wrQLenPdf::39                     0                       # What write queue length does an incoming req see
system.mem_ctrls1.wrQLenPdf::40                     0                       # What write queue length does an incoming req see
system.mem_ctrls1.wrQLenPdf::41                     0                       # What write queue length does an incoming req see
system.mem_ctrls1.wrQLenPdf::42                     0                       # What write queue length does an incoming req see
system.mem_ctrls1.wrQLenPdf::43                     0                       # What write queue length does an incoming req see
system.mem_ctrls1.wrQLenPdf::44                     0                       # What write queue length does an incoming req see
system.mem_ctrls1.wrQLenPdf::45                     0                       # What write queue length does an incoming req see
system.mem_ctrls1.wrQLenPdf::46                     0                       # What write queue length does an incoming req see
system.mem_ctrls1.wrQLenPdf::47                     0                       # What write queue length does an incoming req see
system.mem_ctrls1.wrQLenPdf::48                     0                       # What write queue length does an incoming req see
system.mem_ctrls1.wrQLenPdf::49                     0                       # What write queue length does an incoming req see
system.mem_ctrls1.wrQLenPdf::50                     0                       # What write queue length does an incoming req see
system.mem_ctrls1.wrQLenPdf::51                     0                       # What write queue length does an incoming req see
system.mem_ctrls1.wrQLenPdf::52                     0                       # What write queue length does an incoming req see
system.mem_ctrls1.wrQLenPdf::53                     0                       # What write queue length does an incoming req see
system.mem_ctrls1.wrQLenPdf::54                     0                       # What write queue length does an incoming req see
system.mem_ctrls1.wrQLenPdf::55                     0                       # What write queue length does an incoming req see
system.mem_ctrls1.wrQLenPdf::56                     0                       # What write queue length does an incoming req see
system.mem_ctrls1.wrQLenPdf::57                     0                       # What write queue length does an incoming req see
system.mem_ctrls1.wrQLenPdf::58                     0                       # What write queue length does an incoming req see
system.mem_ctrls1.wrQLenPdf::59                     0                       # What write queue length does an incoming req see
system.mem_ctrls1.wrQLenPdf::60                     0                       # What write queue length does an incoming req see
system.mem_ctrls1.wrQLenPdf::61                     0                       # What write queue length does an incoming req see
system.mem_ctrls1.wrQLenPdf::62                     0                       # What write queue length does an incoming req see
system.mem_ctrls1.wrQLenPdf::63                     0                       # What write queue length does an incoming req see
system.mem_ctrls1.bytesPerActivate::samples        51137                       # Bytes accessed per row activation
system.mem_ctrls1.bytesPerActivate::mean   134.929777                       # Bytes accessed per row activation
system.mem_ctrls1.bytesPerActivate::gmean   110.290197                       # Bytes accessed per row activation
system.mem_ctrls1.bytesPerActivate::stdev   111.365795                       # Bytes accessed per row activation
system.mem_ctrls1.bytesPerActivate::0-127        22797     44.58%     44.58% # Bytes accessed per row activation
system.mem_ctrls1.bytesPerActivate::128-255        23750     46.44%     91.02% # Bytes accessed per row activation
system.mem_ctrls1.bytesPerActivate::256-383         2168      4.24%     95.26% # Bytes accessed per row activation
system.mem_ctrls1.bytesPerActivate::384-511         1087      2.13%     97.39% # Bytes accessed per row activation
system.mem_ctrls1.bytesPerActivate::512-639          646      1.26%     98.65% # Bytes accessed per row activation
system.mem_ctrls1.bytesPerActivate::640-767          420      0.82%     99.47% # Bytes accessed per row activation
system.mem_ctrls1.bytesPerActivate::768-895          197      0.39%     99.86% # Bytes accessed per row activation
system.mem_ctrls1.bytesPerActivate::896-1023           55      0.11%     99.97% # Bytes accessed per row activation
system.mem_ctrls1.bytesPerActivate::1024-1151           17      0.03%    100.00% # Bytes accessed per row activation
system.mem_ctrls1.bytesPerActivate::total        51137                       # Bytes accessed per row activation
system.mem_ctrls1.rdPerTurnAround::samples         2057                       # Reads before turning the bus around for writes
system.mem_ctrls1.rdPerTurnAround::mean     34.412737                       # Reads before turning the bus around for writes
system.mem_ctrls1.rdPerTurnAround::stdev   704.144800                       # Reads before turning the bus around for writes
system.mem_ctrls1.rdPerTurnAround::0-1023         2056     99.95%     99.95% # Reads before turning the bus around for writes
system.mem_ctrls1.rdPerTurnAround::31744-32767            1      0.05%    100.00% # Reads before turning the bus around for writes
system.mem_ctrls1.rdPerTurnAround::total         2057                       # Reads before turning the bus around for writes
system.mem_ctrls1.wrPerTurnAround::samples         2057                       # Writes before turning the bus around for reads
system.mem_ctrls1.wrPerTurnAround::mean     17.988819                       # Writes before turning the bus around for reads
system.mem_ctrls1.wrPerTurnAround::gmean    17.963203                       # Writes before turning the bus around for reads
system.mem_ctrls1.wrPerTurnAround::stdev     0.953374                       # Writes before turning the bus around for reads
system.mem_ctrls1.wrPerTurnAround::16             253     12.30%     12.30% # Writes before turning the bus around for reads
system.mem_ctrls1.wrPerTurnAround::17              47      2.28%     14.58% # Writes before turning the bus around for reads
system.mem_ctrls1.wrPerTurnAround::18            1336     64.95%     79.53% # Writes before turning the bus around for reads
system.mem_ctrls1.wrPerTurnAround::19             341     16.58%     96.11% # Writes before turning the bus around for reads
system.mem_ctrls1.wrPerTurnAround::20              53      2.58%     98.69% # Writes before turning the bus around for reads
system.mem_ctrls1.wrPerTurnAround::21              25      1.22%     99.90% # Writes before turning the bus around for reads
system.mem_ctrls1.wrPerTurnAround::22               2      0.10%    100.00% # Writes before turning the bus around for reads
system.mem_ctrls1.wrPerTurnAround::total         2057                       # Writes before turning the bus around for reads
system.mem_ctrls1.totQLat                  1367992220                       # Total ticks spent queuing
system.mem_ctrls1.totMemAccLat             2695642220                       # Total ticks spent from burst creation until serviced by the DRAM
system.mem_ctrls1.totBusLat                 354040000                       # Total ticks spent in databus transfers
system.mem_ctrls1.avgQLat                    19319.74                       # Average queueing delay per DRAM burst
system.mem_ctrls1.avgBusLat                   5000.00                       # Average bus latency per DRAM burst
system.mem_ctrls1.avgMemAccLat               38069.74                       # Average memory access latency per DRAM burst
system.mem_ctrls1.avgRdBW                        4.41                       # Average DRAM read bandwidth in MiByte/s
system.mem_ctrls1.avgWrBW                        2.31                       # Average achieved write bandwidth in MiByte/s
system.mem_ctrls1.avgRdBWSys                     4.42                       # Average system read bandwidth in MiByte/s
system.mem_ctrls1.avgWrBWSys                     2.31                       # Average system write bandwidth in MiByte/s
system.mem_ctrls1.peakBW                     12800.00                       # Theoretical peak bandwidth in MiByte/s
system.mem_ctrls1.busUtil                        0.05                       # Data bus utilization in percentage
system.mem_ctrls1.busUtilRead                    0.03                       # Data bus utilization in percentage for reads
system.mem_ctrls1.busUtilWrite                   0.02                       # Data bus utilization in percentage for writes
system.mem_ctrls1.avgRdQLen                      1.00                       # Average read queue length when enqueuing
system.mem_ctrls1.avgWrQLen                      0.81                       # Average write queue length when enqueuing
system.mem_ctrls1.readRowHits                   45676                       # Number of row buffer hits during reads
system.mem_ctrls1.writeRowHits                  10998                       # Number of row buffer hits during writes
system.mem_ctrls1.readRowHitRate                64.51                       # Row buffer hit rate for reads
system.mem_ctrls1.writeRowHitRate               29.70                       # Row buffer hit rate for writes
system.mem_ctrls1.avgGap                   9518651.41                       # Average gap between requests
system.mem_ctrls1.pageHitRate                   52.55                       # Row buffer hit rate, read and write combined
system.mem_ctrls1_0.actEnergy               183041040                       # Energy for activate commands per rank (pJ)
system.mem_ctrls1_0.preEnergy                97288620                       # Energy for precharge commands per rank (pJ)
system.mem_ctrls1_0.readEnergy              253327200                       # Energy for read commands per rank (pJ)
system.mem_ctrls1_0.writeEnergy              97045020                       # Energy for write commands per rank (pJ)
system.mem_ctrls1_0.refreshEnergy        4850738880.000001                       # Energy for refresh commands per rank (pJ)
system.mem_ctrls1_0.actBackEnergy          2323290360                       # Energy for active background per rank (pJ)
system.mem_ctrls1_0.preBackEnergy           131261760                       # Energy for precharge background per rank (pJ)
system.mem_ctrls1_0.actPowerDownEnergy    19036769370                       # Energy for active power-down per rank (pJ)
system.mem_ctrls1_0.prePowerDownEnergy     4636474080                       # Energy for precharge power-down per rank (pJ)
system.mem_ctrls1_0.selfRefreshEnergy    232407320730                       # Energy for self refresh per rank (pJ)
system.mem_ctrls1_0.totalEnergy          264017255670                       # Total energy per rank (pJ)
system.mem_ctrls1_0.averagePower           257.094740                       # Core power per rank (mW)
system.mem_ctrls1_0.totalIdleTime        1021451099758                       # Total Idle time Per DRAM Rank
system.mem_ctrls1_0.memoryStateTime::IDLE    129566962                       # Time in different power states
system.mem_ctrls1_0.memoryStateTime::REF   2053762000                       # Time in different power states
system.mem_ctrls1_0.memoryStateTime::SREF 967666156614                       # Time in different power states
system.mem_ctrls1_0.memoryStateTime::PRE_PDN  12075102619                       # Time in different power states
system.mem_ctrls1_0.memoryStateTime::ACT   3255343215                       # Time in different power states
system.mem_ctrls1_0.memoryStateTime::ACT_PDN  41746000704                       # Time in different power states
system.mem_ctrls1_1.actEnergy               182077140                       # Energy for activate commands per rank (pJ)
system.mem_ctrls1_1.preEnergy                96776295                       # Energy for precharge commands per rank (pJ)
system.mem_ctrls1_1.readEnergy              252241920                       # Energy for read commands per rank (pJ)
system.mem_ctrls1_1.writeEnergy              96110640                       # Energy for write commands per rank (pJ)
system.mem_ctrls1_1.refreshEnergy        4758542880.000001                       # Energy for refresh commands per rank (pJ)
system.mem_ctrls1_1.actBackEnergy          2396467530                       # Energy for active background per rank (pJ)
system.mem_ctrls1_1.preBackEnergy           127659840                       # Energy for precharge background per rank (pJ)
system.mem_ctrls1_1.actPowerDownEnergy    18648476250                       # Energy for active power-down per rank (pJ)
system.mem_ctrls1_1.prePowerDownEnergy     4604626560                       # Energy for precharge power-down per rank (pJ)
system.mem_ctrls1_1.selfRefreshEnergy    232566088215                       # Energy for self refresh per rank (pJ)
system.mem_ctrls1_1.totalEnergy          263729626860                       # Total energy per rank (pJ)
system.mem_ctrls1_1.averagePower           256.814652                       # Core power per rank (mW)
system.mem_ctrls1_1.totalIdleTime        1021300405359                       # Total Idle time Per DRAM Rank
system.mem_ctrls1_1.memoryStateTime::IDLE    122651561                       # Time in different power states
system.mem_ctrls1_1.memoryStateTime::REF   2014462000                       # Time in different power states
system.mem_ctrls1_1.memoryStateTime::SREF 968449830864                       # Time in different power states
system.mem_ctrls1_1.memoryStateTime::PRE_PDN  11991542067                       # Time in different power states
system.mem_ctrls1_1.memoryStateTime::ACT   3451501767                       # Time in different power states
system.mem_ctrls1_1.memoryStateTime::ACT_PDN  40895943855                       # Time in different power states
system.pwrStateResidencyTicks::UNDEFINED 111353144686371                       # Cumulative time (in ticks) in various power states
system.cpu.branchPred.lookups                      16                       # Number of BP lookups
system.cpu.branchPred.condPredicted                16                       # Number of conditional branches predicted
system.cpu.branchPred.condIncorrect                13                       # Number of conditional branches incorrect
system.cpu.branchPred.BTBLookups                    0                       # Number of BTB lookups
system.cpu.branchPred.BTBHits                       0                       # Number of BTB hits
system.cpu.branchPred.BTBCorrect                    0                       # Number of correct BTB predictions (this stat may not work properly.
system.cpu.branchPred.BTBHitPct                   nan                       # BTB Hit Percentage
system.cpu.branchPred.usedRAS                       0                       # Number of times the RAS was used to get a target.
system.cpu.branchPred.RASInCorrect                  0                       # Number of incorrect RAS predictions.
system.cpu.branchPred.indirectLookups               0                       # Number of indirect predictor lookups.
system.cpu.branchPred.indirectHits                  0                       # Number of indirect target hits.
system.cpu.branchPred.indirectMisses                0                       # Number of indirect misses.
system.cpu.branchPredindirectMispredicted            0                       # Number of mispredicted indirect branches.
system.cpu_voltage_domain.voltage                   1                       # Voltage in Volts
system.cpu_clk_domain.clock                       333                       # Clock period in ticks
system.cpu.dtb.fetch_hits                           0                       # ITB hits
system.cpu.dtb.fetch_misses                         0                       # ITB misses
system.cpu.dtb.fetch_acv                            0                       # ITB acv
system.cpu.dtb.fetch_accesses                       0                       # ITB accesses
system.cpu.dtb.read_hits                           28                       # DTB read hits
system.cpu.dtb.read_misses                          0                       # DTB read misses
system.cpu.dtb.read_acv                             0                       # DTB read access violations
system.cpu.dtb.read_accesses                       28                       # DTB read accesses
system.cpu.dtb.write_hits                          14                       # DTB write hits
system.cpu.dtb.write_misses                         0                       # DTB write misses
system.cpu.dtb.write_acv                            0                       # DTB write access violations
system.cpu.dtb.write_accesses                      14                       # DTB write accesses
system.cpu.dtb.data_hits                           42                       # DTB hits
system.cpu.dtb.data_misses                          0                       # DTB misses
system.cpu.dtb.data_acv                             0                       # DTB access violations
system.cpu.dtb.data_accesses                       42                       # DTB accesses
system.cpu.itb.fetch_hits                          30                       # ITB hits
system.cpu.itb.fetch_misses                         0                       # ITB misses
system.cpu.itb.fetch_acv                            0                       # ITB acv
system.cpu.itb.fetch_accesses                      30                       # ITB accesses
system.cpu.itb.read_hits                            0                       # DTB read hits
system.cpu.itb.read_misses                          0                       # DTB read misses
system.cpu.itb.read_acv                             0                       # DTB read access violations
system.cpu.itb.read_accesses                        0                       # DTB read accesses
system.cpu.itb.write_hits                           0                       # DTB write hits
system.cpu.itb.write_misses                         0                       # DTB write misses
system.cpu.itb.write_acv                            0                       # DTB write access violations
system.cpu.itb.write_accesses                       0                       # DTB write accesses
system.cpu.itb.data_hits                            0                       # DTB hits
system.cpu.itb.data_misses                          0                       # DTB misses
system.cpu.itb.data_acv                             0                       # DTB access violations
system.cpu.itb.data_accesses                        0                       # DTB accesses
system.cpu.workload.num_syscalls                    6                       # Number of system calls
system.cpu.pwrStateResidencyTicks::ON    1026925932114                       # Cumulative time (in ticks) in various power states
system.cpu.numCycles                              768                       # number of cpu cycles simulated
system.cpu.numWorkItemsStarted                      0                       # number of work items this cpu started
system.cpu.numWorkItemsCompleted                    0                       # number of work items this cpu completed
system.cpu.fetch.icacheStallCycles                176                       # Number of cycles fetch is stalled on an Icache miss
system.cpu.fetch.Insts                            176                       # Number of instructions fetch has processed
system.cpu.fetch.Branches                          16                       # Number of branches that fetch encountered
system.cpu.fetch.Cycles                            29                       # Number of cycles fetch has run and was not squashing or blocked
system.cpu.fetch.SquashCycles                      29                       # Number of cycles fetch has spent squashing
system.cpu.fetch.PendingDrainCycles                23                       # Number of cycles fetch has spent waiting on pipes to drain
system.cpu.fetch.CacheLines                        30                       # Number of cache lines fetched
system.cpu.fetch.IcacheSquashes                    15                       # Number of outstanding Icache misses that were squashed
system.cpu.fetch.rateDist::samples                242                       # Number of instructions fetched each cycle (Total)
system.cpu.fetch.rateDist::mean              0.727273                       # Number of instructions fetched each cycle (Total)
system.cpu.fetch.rateDist::stdev             2.093261                       # Number of instructions fetched each cycle (Total)
system.cpu.fetch.rateDist::underflows               0      0.00%      0.00% # Number of instructions fetched each cycle (Total)
system.cpu.fetch.rateDist::0                      213     88.02%     88.02% # Number of instructions fetched each cycle (Total)
system.cpu.fetch.rateDist::1                        0      0.00%     88.02% # Number of instructions fetched each cycle (Total)
system.cpu.fetch.rateDist::2                        0      0.00%     88.02% # Number of instructions fetched each cycle (Total)
system.cpu.fetch.rateDist::3                        0      0.00%     88.02% # Number of instructions fetched each cycle (Total)
system.cpu.fetch.rateDist::4                       14      5.79%     93.80% # Number of instructions fetched each cycle (Total)
system.cpu.fetch.rateDist::5                        0      0.00%     93.80% # Number of instructions fetched each cycle (Total)
[...]
system.switch_cpus_1.iq.int_inst_queue_writes    202639752                       # Number of integer instruction queue writes
system.switch_cpus_1.iq.int_inst_queue_wakeup_accesses    200868658                       # Number of integer instruction queue wakeup accesses
system.switch_cpus_1.iq.fp_inst_queue_reads        21542                       # Number of floating instruction queue reads
system.switch_cpus_1.iq.fp_inst_queue_writes        21207                       # Number of floating instruction queue writes
system.switch_cpus_1.iq.fp_inst_queue_wakeup_accesses         9509                       # Number of floating instruction queue wakeup accesses
system.switch_cpus_1.iq.int_alu_accesses    204534017                       # Number of integer alu accesses
system.switch_cpus_1.iq.fp_alu_accesses         10903                       # Number of floating point alu accesses
system.switch_cpus_1.iew.lsq.thread0.forwLoads      2215638                       # Number of loads that had data forwarded from stores
system.switch_cpus_1.iew.lsq.thread0.invAddrLoads            0                       # Number of loads ignored due to an invalid address
system.switch_cpus_1.iew.lsq.thread0.squashedLoads       350682                       # Number of loads squashed
system.switch_cpus_1.iew.lsq.thread0.ignoredResponses          201                       # Number of memory responses ignored because the instruction is squashed
system.switch_cpus_1.iew.lsq.thread0.memOrderViolation         3510                       # Number of memory ordering violations
system.switch_cpus_1.iew.lsq.thread0.squashedStores       139470                       # Number of stores squashed
system.switch_cpus_1.iew.lsq.thread0.invAddrSwpfs            0                       # Number of software prefetches ignored due to an invalid address
system.switch_cpus_1.iew.lsq.thread0.blockedLoads            0                       # Number of blocked loads due to partial load-store forwarding
system.switch_cpus_1.iew.lsq.thread0.rescheduledLoads           36                       # Number of loads that were rescheduled
system.switch_cpus_1.iew.lsq.thread0.cacheBlocked       424779                       # Number of times an access to memory failed due to the cache being blocked
system.switch_cpus_1.iew.iewIdleCycles              0                       # Number of cycles IEW is idle
system.switch_cpus_1.iew.iewSquashCycles        36226                       # Number of cycles IEW is squashing
system.switch_cpus_1.iew.iewBlockCycles        348261                       # Number of cycles IEW is blocking
system.switch_cpus_1.iew.iewUnblockCycles      2569909                       # Number of cycles IEW is unblocking
system.switch_cpus_1.iew.iewDispatchedInsts    201462685                       # Number of instructions dispatched to IQ
system.switch_cpus_1.iew.iewDispSquashedInsts         1144                       # Number of squashed instructions skipped by dispatch
system.switch_cpus_1.iew.iewDispLoadInsts     53740482                       # Number of dispatched load instructions
system.switch_cpus_1.iew.iewDispStoreInsts     22318063                       # Number of dispatched store instructions
system.switch_cpus_1.iew.iewDispNonSpecInsts         1871                       # Number of dispatched non-speculative instructions
system.switch_cpus_1.iew.iewIQFullEvents         9791                       # Number of times the IQ has become full, causing a stall
system.switch_cpus_1.iew.iewLSQFullEvents      2546198                       # Number of times the LSQ has become full, causing a stall
system.switch_cpus_1.iew.memOrderViolationEvents         3510                       # Number of memory order violations
system.switch_cpus_1.iew.predictedTakenIncorrect        11672                       # Number of branches that were predicted taken incorrectly
system.switch_cpus_1.iew.predictedNotTakenIncorrect        16817                       # Number of branches that were predicted not taken incorrectly
system.switch_cpus_1.iew.branchMispredicts        28489                       # Number of branch mispredicts detected at execute
system.switch_cpus_1.iew.iewExecutedInsts    201358388                       # Number of executed instructions
system.switch_cpus_1.iew.iewExecLoadInsts     54077384                       # Number of load instructions executed
system.switch_cpus_1.iew.iewExecSquashedInsts        67145                       # Number of squashed instructions skipped in execute
system.switch_cpus_1.iew.exec_swp                   0                       # number of swp insts executed
system.switch_cpus_1.iew.exec_nop              133905                       # number of nop insts executed
system.switch_cpus_1.iew.exec_refs           76339028                       # number of memory reference insts executed
system.switch_cpus_1.iew.exec_branches        9159823                       # Number of branches executed
system.switch_cpus_1.iew.exec_stores         22261644                       # Number of stores executed
system.switch_cpus_1.iew.exec_rate           2.871333                       # Inst execution rate
system.switch_cpus_1.iew.wb_sent            200930289                       # cumulative count of insts sent to commit
system.switch_cpus_1.iew.wb_count           200878167                       # cumulative count of insts written-back
system.switch_cpus_1.iew.wb_producers       130016297                       # num instructions producing a value
system.switch_cpus_1.iew.wb_consumers       178498381                       # num instructions consuming a value
system.switch_cpus_1.iew.wb_rate             2.864485                       # insts written-back per cycle
system.switch_cpus_1.iew.wb_fanout           0.728389                       # average fanout of values written-back
system.switch_cpus_1.commit.commitSquashedInsts      1268522                       # The number of squashed insts skipped by commit
system.switch_cpus_1.commit.commitNonSpecStalls         2565                       # The number of times commit has been forced to stall to communicate backwards
system.switch_cpus_1.commit.branchMispredicts        27203                       # The number of times a branch was mispredicted
system.switch_cpus_1.commit.committed_per_cycle::samples     69900214                       # Number of insts commited each cycle
system.switch_cpus_1.commit.committed_per_cycle::mean     2.862704                       # Number of insts commited each cycle
system.switch_cpus_1.commit.committed_per_cycle::stdev     3.451278                       # Number of insts commited each cycle
system.switch_cpus_1.commit.committed_per_cycle::underflows            0      0.00%      0.00% # Number of insts commited each cycle
system.switch_cpus_1.commit.committed_per_cycle::0     30064781     43.01%     43.01% # Number of insts commited each cycle
system.switch_cpus_1.commit.committed_per_cycle::1     11503004     16.46%     59.47% # Number of insts commited each cycle
system.switch_cpus_1.commit.committed_per_cycle::2      2517359      3.60%     63.07% # Number of insts commited each cycle
system.switch_cpus_1.commit.committed_per_cycle::3      2936017      4.20%     67.27% # Number of insts commited each cycle
system.switch_cpus_1.commit.committed_per_cycle::4       422967      0.61%     67.87% # Number of insts commited each cycle
system.switch_cpus_1.commit.committed_per_cycle::5      1969792      2.82%     70.69% # Number of insts commited each cycle
system.switch_cpus_1.commit.committed_per_cycle::6       204878      0.29%     70.99% # Number of insts commited each cycle
system.switch_cpus_1.commit.committed_per_cycle::7       263587      0.38%     71.36% # Number of insts commited each cycle
system.switch_cpus_1.commit.committed_per_cycle::8     20017829     28.64%    100.00% # Number of insts commited each cycle
system.switch_cpus_1.commit.committed_per_cycle::overflows            0      0.00%    100.00% # Number of insts commited each cycle
system.switch_cpus_1.commit.committed_per_cycle::min_value            0                       # Number of insts commited each cycle
system.switch_cpus_1.commit.committed_per_cycle::max_value            8                       # Number of insts commited each cycle
system.switch_cpus_1.commit.committed_per_cycle::total     69900214                       # Number of insts commited each cycle
system.switch_cpus_1.commit.committedInsts    200103610                       # Number of instructions committed
system.switch_cpus_1.commit.committedOps    200103610                       # Number of ops (including micro ops) committed
system.switch_cpus_1.commit.swp_count               0                       # Number of s/w prefetches committed
system.switch_cpus_1.commit.refs             75568371                       # Number of memory references committed
system.switch_cpus_1.commit.loads            53389787                       # Number of loads committed
system.switch_cpus_1.commit.membars              1282                       # Number of memory barriers committed
system.switch_cpus_1.commit.branches          9081009                       # Number of branches committed
system.switch_cpus_1.commit.fp_insts             7063                       # Number of committed floating point instructions.
system.switch_cpus_1.commit.int_insts       199966042                       # Number of committed integer instructions.
system.switch_cpus_1.commit.function_calls        26169                       # Number of function calls committed.
system.switch_cpus_1.commit.op_class_0::No_OpClass       103604      0.05%      0.05% # Class of committed instruction
system.switch_cpus_1.commit.op_class_0::IntAlu    124425131     62.18%     62.23% # Class of committed instruction
system.switch_cpus_1.commit.op_class_0::IntMult           14      0.00%     62.23% # Class of committed instruction
system.switch_cpus_1.commit.op_class_0::IntDiv            0      0.00%     62.23% # Class of committed instruction
system.switch_cpus_1.commit.op_class_0::FloatAdd         3080      0.00%     62.23% # Class of committed instruction
system.switch_cpus_1.commit.op_class_0::FloatCmp          511      0.00%     62.23% # Class of committed instruction
system.switch_cpus_1.commit.op_class_0::FloatCvt          406      0.00%     62.23% # Class of committed instruction
system.switch_cpus_1.commit.op_class_0::FloatMult         1162      0.00%     62.23% # Class of committed instruction
system.switch_cpus_1.commit.op_class_0::FloatMultAcc            0      0.00%     62.23% # Class of committed instruction
system.switch_cpus_1.commit.op_class_0::FloatDiv           49      0.00%     62.23% # Class of committed instruction
system.switch_cpus_1.commit.op_class_0::FloatMisc            0      0.00%     62.23% # Class of committed instruction
system.switch_cpus_1.commit.op_class_0::FloatSqrt            0      0.00%     62.23% # Class of committed instruction
system.switch_cpus_1.commit.op_class_0::SimdAdd            0      0.00%     62.23% # Class of committed instruction
system.switch_cpus_1.commit.op_class_0::SimdAddAcc            0      0.00%     62.23% # Class of committed instruction
system.switch_cpus_1.commit.op_class_0::SimdAlu            0      0.00%     62.23% # Class of committed instruction
system.switch_cpus_1.commit.op_class_0::SimdCmp            0      0.00%     62.23% # Class of committed instruction
system.switch_cpus_1.commit.op_class_0::SimdCvt            0      0.00%     62.23% # Class of committed instruction
system.switch_cpus_1.commit.op_class_0::SimdMisc            0      0.00%     62.23% # Class of committed instruction
system.switch_cpus_1.commit.op_class_0::SimdMult            0      0.00%     62.23% # Class of committed instruction
system.switch_cpus_1.commit.op_class_0::SimdMultAcc            0      0.00%     62.23% # Class of committed instruction
system.switch_cpus_1.commit.op_class_0::SimdShift            0      0.00%     62.23% # Class of committed instruction
system.switch_cpus_1.commit.op_class_0::SimdShiftAcc            0      0.00%     62.23% # Class of committed instruction
system.switch_cpus_1.commit.op_class_0::SimdSqrt            0      0.00%     62.23% # Class of committed instruction
system.switch_cpus_1.commit.op_class_0::SimdFloatAdd            0      0.00%     62.23% # Class of committed instruction
system.switch_cpus_1.commit.op_class_0::SimdFloatAlu            0      0.00%     62.23% # Class of committed instruction
system.switch_cpus_1.commit.op_class_0::SimdFloatCmp            0      0.00%     62.23% # Class of committed instruction
system.switch_cpus_1.commit.op_class_0::SimdFloatCvt            0      0.00%     62.23% # Class of committed instruction
system.switch_cpus_1.commit.op_class_0::SimdFloatDiv            0      0.00%     62.23% # Class of committed instruction
system.switch_cpus_1.commit.op_class_0::SimdFloatMisc            0      0.00%     62.23% # Class of committed instruction
system.switch_cpus_1.commit.op_class_0::SimdFloatMult            0      0.00%     62.23% # Class of committed instruction
system.switch_cpus_1.commit.op_class_0::SimdFloatMultAcc            0      0.00%     62.23% # Class of committed instruction
system.switch_cpus_1.commit.op_class_0::SimdFloatSqrt            0      0.00%     62.23% # Class of committed instruction
system.switch_cpus_1.commit.op_class_0::MemRead     53389445     26.68%     88.92% # Class of committed instruction
system.switch_cpus_1.commit.op_class_0::MemWrite     22178353     11.08%    100.00% # Class of committed instruction
system.switch_cpus_1.commit.op_class_0::FloatMemRead         1624      0.00%    100.00% # Class of committed instruction
system.switch_cpus_1.commit.op_class_0::FloatMemWrite          231      0.00%    100.00% # Class of committed instruction
system.switch_cpus_1.commit.op_class_0::IprAccess            0      0.00%    100.00% # Class of committed instruction
system.switch_cpus_1.commit.op_class_0::InstPrefetch            0      0.00%    100.00% # Class of committed instruction
system.switch_cpus_1.commit.op_class_0::total    200103610                       # Class of committed instruction
system.switch_cpus_1.commit.bw_lim_events     20017829                       # number cycles where commit BW limit reached
system.switch_cpus_1.rob.rob_reads          251175386                       # The number of ROB reads
system.switch_cpus_1.rob.rob_writes         402931035                       # The number of ROB writes
system.switch_cpus_1.timesIdled                   892                       # Number of times that the entire CPU went into an idle state and unscheduled itself
system.switch_cpus_1.idleCycles                 42687                       # Total number of cycles that the CPU has spent unscheduled due to idling
system.switch_cpus_1.committedInsts         200000006                       # Number of Instructions Simulated
system.switch_cpus_1.committedOps           200000006                       # Number of Ops (including micro ops) Simulated
system.switch_cpus_1.cpi                     0.350636                       # CPI: Cycles Per Instruction
system.switch_cpus_1.cpi_total               0.350636                       # CPI: Total CPI of All Threads
system.switch_cpus_1.ipc                     2.851962                       # IPC: Instructions Per Cycle
system.switch_cpus_1.ipc_total               2.851962                       # IPC: Total IPC of All Threads
system.switch_cpus_1.int_regfile_reads      323290686                       # number of integer regfile reads
system.switch_cpus_1.int_regfile_writes     169528225                       # number of integer regfile writes
system.switch_cpus_1.fp_regfile_reads           12360                       # number of floating regfile reads
system.switch_cpus_1.fp_regfile_writes           8115                       # number of floating regfile writes
system.switch_cpus_1.misc_regfile_reads         13721                       # number of misc regfile reads
system.switch_cpus_1.misc_regfile_writes         2564                       # number of misc regfile writes
system.tol3bus.snoop_filter.tot_requests      5443175                       # Total number of requests made to the snoop filter.
system.tol3bus.snoop_filter.hit_single_requests      2719266                       # Number of requests hitting in the snoop filter with a single holder of the requested data.
system.tol3bus.snoop_filter.hit_multi_requests            0                       # Number of requests hitting in the snoop filter with multiple (>1) holders of the requested data.
system.tol3bus.snoop_filter.tot_snoops            911                       # Total number of snoops made to the snoop filter.
system.tol3bus.snoop_filter.hit_single_snoops          911                       # Number of snoops hitting in the snoop filter with a single holder of the requested data.
system.tol3bus.snoop_filter.hit_multi_snoops            0                       # Number of snoops hitting in the snoop filter with multiple (>1) holders of the requested data.
system.tol3bus.pwrStateResidencyTicks::UNDEFINED 111353144686371                       # Cumulative time (in ticks) in various power states
system.tol3bus.trans_dist::ReadResp            206233                       # Transaction distribution
system.tol3bus.trans_dist::WritebackDirty      2626479                       # Transaction distribution
system.tol3bus.trans_dist::CleanEvict          169078                       # Transaction distribution
system.tol3bus.trans_dist::ReadExReq          2517676                       # Transaction distribution
system.tol3bus.trans_dist::ReadExResp         2517676                       # Transaction distribution
system.tol3bus.trans_dist::ReadSharedReq       206233                       # Transaction distribution
system.tol3bus.pkt_count_system.cpu.l2.mem_side::system.l3.cpu_side      8167084                       # Packet count per connected master and slave (bytes)
system.tol3bus.pkt_size_system.cpu.l2.mem_side::system.l3.cpu_side    337673152                       # Cumulative packet size per connected master and slave (bytes)
system.tol3bus.snoops                           76291                       # Total snoops (count)
system.tol3bus.snoopTraffic                   4751680                       # Total snoop traffic (bytes)
system.tol3bus.snoop_fanout::samples          2800200                       # Request fanout histogram
system.tol3bus.snoop_fanout::mean            0.000325                       # Request fanout histogram
system.tol3bus.snoop_fanout::stdev           0.018034                       # Request fanout histogram
system.tol3bus.snoop_fanout::underflows             0      0.00%      0.00% # Request fanout histogram
system.tol3bus.snoop_fanout::0                2799289     99.97%     99.97% # Request fanout histogram
system.tol3bus.snoop_fanout::1                    911      0.03%    100.00% # Request fanout histogram
system.tol3bus.snoop_fanout::overflows              0      0.00%    100.00% # Request fanout histogram
system.tol3bus.snoop_fanout::min_value              0                       # Request fanout histogram
system.tol3bus.snoop_fanout::max_value              1                       # Request fanout histogram
system.tol3bus.snoop_fanout::total            2800200                       # Request fanout histogram
system.tol3bus.reqLayer0.occupancy         2662471197                       # Layer occupancy (ticks)
system.tol3bus.reqLayer0.utilization              0.3                       # Layer utilization (%)
system.tol3bus.respLayer0.occupancy        1814123394                       # Layer occupancy (ticks)
system.tol3bus.respLayer0.utilization             0.2                       # Layer utilization (%)

---------- End Simulation Statistics   ----------
