
---------- Begin Simulation Statistics ----------
sim_seconds                                  1.718401                       # Number of seconds simulated
sim_ticks                                1718401160385                       # Number of ticks simulated
final_tick                               35021779084746                       # Number of ticks from beginning of simulation (restored from checkpoints and never reset)
sim_freq                                 1000000000000                       # Frequency of simulated ticks
host_inst_rate                                 535449                       # Simulator instruction rate (inst/s)
host_op_rate                                   535449                       # Simulator op (including micro ops) rate (op/s)
host_tick_rate                              766763672                       # Simulator tick rate (ticks/s)
host_mem_usage                                2568188                       # Number of bytes of host memory used
host_seconds                                  2241.11                       # Real time elapsed on the host
sim_insts                                  1200000009                       # Number of instructions simulated
sim_ops                                    1200000009                       # Number of ops (including micro ops) simulated
system.voltage_domain.voltage                       1                       # Voltage in Volts
system.clk_domain.clock                          1000                       # Clock period in ticks
system.mem_ctrls0.pwrStateResidencyTicks::UNDEFINED 35021779084746                       # Cumulative time (in ticks) in various power states
system.mem_ctrls0.bytes_read::cpu.inst            128                       # Number of bytes read from this memory
system.mem_ctrls0.bytes_read::cpu.data            192                       # Number of bytes read from this memory
system.mem_ctrls0.bytes_read::switch_cpus.inst         8064                       # Number of bytes read from this memory
system.mem_ctrls0.bytes_read::switch_cpus.data     86135360                       # Number of bytes read from this memory
system.mem_ctrls0.bytes_read::switch_cpus_1.inst           64                       # Number of bytes read from this memory
system.mem_ctrls0.bytes_read::switch_cpus_1.data     17654912                       # Number of bytes read from this memory
system.mem_ctrls0.bytes_read::total         103798720                       # Number of bytes read from this memory
system.mem_ctrls0.bytes_inst_read::cpu.inst          128                       # Number of instructions bytes read from this memory
system.mem_ctrls0.bytes_inst_read::switch_cpus.inst         8064                       # Number of instructions bytes read from this memory
system.mem_ctrls0.bytes_inst_read::switch_cpus_1.inst           64                       # Number of instructions bytes read from this memory
system.mem_ctrls0.bytes_inst_read::total         8256                       # Number of instructions bytes read from this memory
system.mem_ctrls0.bytes_written::writebacks     34985216                       # Number of bytes written to this memory
system.mem_ctrls0.bytes_written::total       34985216                       # Number of bytes written to this memory
system.mem_ctrls0.num_reads::cpu.inst               2                       # Number of read requests responded to by this memory
system.mem_ctrls0.num_reads::cpu.data               3                       # Number of read requests responded to by this memory
system.mem_ctrls0.num_reads::switch_cpus.inst          126                       # Number of read requests responded to by this memory
system.mem_ctrls0.num_reads::switch_cpus.data      1345865                       # Number of read requests responded to by this memory
system.mem_ctrls0.num_reads::switch_cpus_1.inst            1                       # Number of read requests responded to by this memory
system.mem_ctrls0.num_reads::switch_cpus_1.data       275858                       # Number of read requests responded to by this memory
system.mem_ctrls0.num_reads::total            1621855                       # Number of read requests responded to by this memory
system.mem_ctrls0.num_writes::writebacks       546644                       # Number of write requests responded to by this memory
system.mem_ctrls0.num_writes::total            546644                       # Number of write requests responded to by this memory
system.mem_ctrls0.bw_read::cpu.inst                74                       # Total read bandwidth from this memory (bytes/s)
system.mem_ctrls0.bw_read::cpu.data               112                       # Total read bandwidth from this memory (bytes/s)
system.mem_ctrls0.bw_read::switch_cpus.inst         4693                       # Total read bandwidth from this memory (bytes/s)
system.mem_ctrls0.bw_read::switch_cpus.data     50125292                       # Total read bandwidth from this memory (bytes/s)
system.mem_ctrls0.bw_read::switch_cpus_1.inst           37                       # Total read bandwidth from this memory (bytes/s)
system.mem_ctrls0.bw_read::switch_cpus_1.data     10274034                       # Total read bandwidth from this memory (bytes/s)
system.mem_ctrls0.bw_read::total             60404242                       # Total read bandwidth from this memory (bytes/s)
system.mem_ctrls0.bw_inst_read::cpu.inst           74                       # Instruction read bandwidth from this memory (bytes/s)
system.mem_ctrls0.bw_inst_read::switch_cpus.inst         4693                       # Instruction read bandwidth from this memory (bytes/s)
system.mem_ctrls0.bw_inst_read::switch_cpus_1.inst           37                       # Instruction read bandwidth from this memory (bytes/s)
system.mem_ctrls0.bw_inst_read::total            4804                       # Instruction read bandwidth from this memory (bytes/s)
system.mem_ctrls0.bw_write::writebacks       20359167                       # Write bandwidth from this memory (bytes/s)
system.mem_ctrls0.bw_write::total            20359167                       # Write bandwidth from this memory (bytes/s)
system.mem_ctrls0.bw_total::writebacks       20359167                       # Total bandwidth to/from this memory (bytes/s)
system.mem_ctrls0.bw_total::cpu.inst               74                       # Total bandwidth to/from this memory (bytes/s)
system.mem_ctrls0.bw_total::cpu.data              112                       # Total bandwidth to/from this memory (bytes/s)
system.mem_ctrls0.bw_total::switch_cpus.inst         4693                       # Total bandwidth to/from this memory (bytes/s)
system.mem_ctrls0.bw_total::switch_cpus.data     50125292                       # Total bandwidth to/from this memory (bytes/s)
system.mem_ctrls0.bw_total::switch_cpus_1.inst           37                       # Total bandwidth to/from this memory (bytes/s)
system.mem_ctrls0.bw_total::switch_cpus_1.data     10274034                       # Total bandwidth to/from this memory (bytes/s)
system.mem_ctrls0.bw_total::total            80763409                       # Total bandwidth to/from this memory (bytes/s)
system.mem_ctrls0.readReqs                    1621855                       # Number of read requests accepted
system.mem_ctrls0.writeReqs                    546644                       # Number of write requests accepted
system.mem_ctrls0.readBursts                  1621855                       # Number of DRAM read bursts, including those serviced by the write queue
system.mem_ctrls0.writeBursts                  546644                       # Number of DRAM write bursts, including those merged in the write queue
system.mem_ctrls0.bytesReadDRAM             103780160                       # Total number of bytes read from DRAM
system.mem_ctrls0.bytesReadWrQ                  18560                       # Total number of bytes read from write queue
system.mem_ctrls0.bytesWritten               34983168                       # Total number of bytes written to DRAM
system.mem_ctrls0.bytesReadSys              103798720                       # Total read bytes from the system interface side
system.mem_ctrls0.bytesWrittenSys            34985216                       # Total written bytes from the system interface side
system.mem_ctrls0.servicedByWrQ                   290                       # Number of DRAM read bursts serviced by the write queue
system.mem_ctrls0.mergedWrBursts                    0                       # Number of DRAM write bursts merged with an existing one
system.mem_ctrls0.neitherReadNorWriteReqs            0                       # Number of requests that are neither read nor write
system.mem_ctrls0.perBankRdBursts::0           105752                       # Per bank write bursts
system.mem_ctrls0.perBankRdBursts::1           103622                       # Per bank write bursts
system.mem_ctrls0.perBankRdBursts::2           103862                       # Per bank write bursts
system.mem_ctrls0.perBankRdBursts::3           101067                       # Per bank write bursts
system.mem_ctrls0.perBankRdBursts::4           101522                       # Per bank write bursts
system.mem_ctrls0.perBankRdBursts::5           101418                       # Per bank write bursts
system.mem_ctrls0.perBankRdBursts::6           100956                       # Per bank write bursts
system.mem_ctrls0.perBankRdBursts::7           101741                       # Per bank write bursts
system.mem_ctrls0.perBankRdBursts::8           100766                       # Per bank write bursts
system.mem_ctrls0.perBankRdBursts::9            99545                       # Per bank write bursts
system.mem_ctrls0.perBankRdBursts::10           99619                       # Per bank write bursts
system.mem_ctrls0.perBankRdBursts::11           99703                       # Per bank write bursts
system.mem_ctrls0.perBankRdBursts::12           98607                       # Per bank write bursts
system.mem_ctrls0.perBankRdBursts::13           98781                       # Per bank write bursts
system.mem_ctrls0.perBankRdBursts::14          100983                       # Per bank write bursts
system.mem_ctrls0.perBankRdBursts::15          103621                       # Per bank write bursts
system.mem_ctrls0.perBankWrBursts::0            36423                       # Per bank write bursts
system.mem_ctrls0.perBankWrBursts::1            35402                       # Per bank write bursts
system.mem_ctrls0.perBankWrBursts::2            34812                       # Per bank write bursts
system.mem_ctrls0.perBankWrBursts::3            33686                       # Per bank write bursts
system.mem_ctrls0.perBankWrBursts::4            33665                       # Per bank write bursts
system.mem_ctrls0.perBankWrBursts::5            33503                       # Per bank write bursts
system.mem_ctrls0.perBankWrBursts::6            33505                       # Per bank write bursts
system.mem_ctrls0.perBankWrBursts::7            33986                       # Per bank write bursts
system.mem_ctrls0.perBankWrBursts::8            33544                       # Per bank write bursts
system.mem_ctrls0.perBankWrBursts::9            33369                       # Per bank write bursts
system.mem_ctrls0.perBankWrBursts::10           33841                       # Per bank write bursts
system.mem_ctrls0.perBankWrBursts::11           33700                       # Per bank write bursts
system.mem_ctrls0.perBankWrBursts::12           33553                       # Per bank write bursts
system.mem_ctrls0.perBankWrBursts::13           33635                       # Per bank write bursts
system.mem_ctrls0.perBankWrBursts::14           34452                       # Per bank write bursts
system.mem_ctrls0.perBankWrBursts::15           35536                       # Per bank write bursts
system.mem_ctrls0.numRdRetry                        0                       # Number of times read queue was full causing retry
system.mem_ctrls0.numWrRetry                        0                       # Number of times write queue was full causing retry
system.mem_ctrls0.totGap                 1718400688857                       # Total gap between requests
system.mem_ctrls0.readPktSize::0                    0                       # Read request sizes (log2)
system.mem_ctrls0.readPktSize::1                    0                       # Read request sizes (log2)
system.mem_ctrls0.readPktSize::2                    0                       # Read request sizes (log2)
system.mem_ctrls0.readPktSize::3                    0                       # Read request sizes (log2)
system.mem_ctrls0.readPktSize::4                    0                       # Read request sizes (log2)
system.mem_ctrls0.readPktSize::5                    0                       # Read request sizes (log2)
system.mem_ctrls0.readPktSize::6              1621855                       # Read request sizes (log2)
system.mem_ctrls0.writePktSize::0                   0                       # Write request sizes (log2)
system.mem_ctrls0.writePktSize::1                   0                       # Write request sizes (log2)
system.mem_ctrls0.writePktSize::2                   0                       # Write request sizes (log2)
system.mem_ctrls0.writePktSize::3                   0                       # Write request sizes (log2)
system.mem_ctrls0.writePktSize::4                   0                       # Write request sizes (log2)
system.mem_ctrls0.writePktSize::5                   0                       # Write request sizes (log2)
system.mem_ctrls0.writePktSize::6              546644                       # Write request sizes (log2)
system.mem_ctrls0.rdQLenPdf::0                1535690                       # What read queue length does an incoming req see
system.mem_ctrls0.rdQLenPdf::1                  76603                       # What read queue length does an incoming req see
system.mem_ctrls0.rdQLenPdf::2                   8762                       # What read queue length does an incoming req see
system.mem_ctrls0.rdQLenPdf::3                    510                       # What read queue length does an incoming req see
system.mem_ctrls0.rdQLenPdf::4                      0                       # What read queue length does an incoming req see
system.mem_ctrls0.rdQLenPdf::5                      0                       # What read queue length does an incoming req see
system.mem_ctrls0.rdQLenPdf::6                      0                       # What read queue length does an incoming req see
system.mem_ctrls0.rdQLenPdf::7                      0                       # What read queue length does an incoming req see
system.mem_ctrls0.rdQLenPdf::8                      0                       # What read queue length does an incoming req see
system.mem_ctrls0.rdQLenPdf::9                      0                       # What read queue length does an incoming req see
system.mem_ctrls0.rdQLenPdf::10                     0                       # What read queue length does an incoming req see
system.mem_ctrls0.rdQLenPdf::11                     0                       # What read queue length does an incoming req see
system.mem_ctrls0.rdQLenPdf::12                     0                       # What read queue length does an incoming req see
system.mem_ctrls0.rdQLenPdf::13                     0                       # What read queue length does an incoming req see
system.mem_ctrls0.rdQLenPdf::14                     0                       # What read queue length does an incoming req see
system.mem_ctrls0.rdQLenPdf::15                     0                       # What read queue length does an incoming req see
system.mem_ctrls0.rdQLenPdf::16                     0                       # What read queue length does an incoming req see
system.mem_ctrls0.rdQLenPdf::17                     0                       # What read queue length does an incoming req see
system.mem_ctrls0.rdQLenPdf::18                     0                       # What read queue length does an incoming req see
system.mem_ctrls0.rdQLenPdf::19                     0                       # What read queue length does an incoming req see
system.mem_ctrls0.rdQLenPdf::20                     0                       # What read queue length does an incoming req see
system.mem_ctrls0.rdQLenPdf::21                     0                       # What read queue length does an incoming req see
system.mem_ctrls0.rdQLenPdf::22                     0                       # What read queue length does an incoming req see
system.mem_ctrls0.rdQLenPdf::23                     0                       # What read queue length does an incoming req see
system.mem_ctrls0.rdQLenPdf::24                     0                       # What read queue length does an incoming req see
system.mem_ctrls0.rdQLenPdf::25                     0                       # What read queue length does an incoming req see
system.mem_ctrls0.rdQLenPdf::26                     0                       # What read queue length does an incoming req see
system.mem_ctrls0.rdQLenPdf::27                     0                       # What read queue length does an incoming req see
system.mem_ctrls0.rdQLenPdf::28                     0                       # What read queue length does an incoming req see
system.mem_ctrls0.rdQLenPdf::29                     0                       # What read queue length does an incoming req see
system.mem_ctrls0.rdQLenPdf::30                     0                       # What read queue length does an incoming req see
system.mem_ctrls0.rdQLenPdf::31                     0                       # What read queue length does an incoming req see
system.mem_ctrls0.wrQLenPdf::0                      2                       # What write queue length does an incoming req see
system.mem_ctrls0.wrQLenPdf::1                      2                       # What write queue length does an incoming req see
system.mem_ctrls0.wrQLenPdf::2                      2                       # What write queue length does an incoming req see
system.mem_ctrls0.wrQLenPdf::3                      2                       # What write queue length does an incoming req see
system.mem_ctrls0.wrQLenPdf::4                      2                       # What write queue length does an incoming req see
system.mem_ctrls0.wrQLenPdf::5                      2                       # What write queue length does an incoming req see
system.mem_ctrls0.wrQLenPdf::6                      2                       # What write queue length does an incoming req see
system.mem_ctrls0.wrQLenPdf::7                      2                       # What write queue length does an incoming req see
system.mem_ctrls0.wrQLenPdf::8                      2                       # What write queue length does an incoming req see
system.mem_ctrls0.wrQLenPdf::9                      2                       # What write queue length does an incoming req see
system.mem_ctrls0.wrQLenPdf::10                     2                       # What write queue length does an incoming req see
system.mem_ctrls0.wrQLenPdf::11                     2                       # What write queue length does an incoming req see
system.mem_ctrls0.wrQLenPdf::12                     2                       # What write queue length does an incoming req see
system.mem_ctrls0.wrQLenPdf::13                     2                       # What write queue length does an incoming req see
system.mem_ctrls0.wrQLenPdf::14                     2                       # What write queue length does an incoming req see
system.mem_ctrls0.wrQLenPdf::15                 19783                       # What write queue length does an incoming req see
system.mem_ctrls0.wrQLenPdf::16                 20725                       # What write queue length does an incoming req see
system.mem_ctrls0.wrQLenPdf::17                 30570                       # What write queue length does an incoming req see
system.mem_ctrls0.wrQLenPdf::18                 31571                       # What write queue length does an incoming req see
system.mem_ctrls0.wrQLenPdf::19                 31657                       # What write queue length does an incoming req see
system.mem_ctrls0.wrQLenPdf::20                 31657                       # What write queue length does an incoming req see
system.mem_ctrls0.wrQLenPdf::21                 31706                       # What write queue length does an incoming req see
system.mem_ctrls0.wrQLenPdf::22                 31930                       # What write queue length does an incoming req see
system.mem_ctrls0.wrQLenPdf::23                 31852                       # What write queue length does an incoming req see
system.mem_ctrls0.wrQLenPdf::24                 31767                       # What write queue length does an incoming req see
system.mem_ctrls0.wrQLenPdf::25                 31739                       # What write queue length does an incoming req see
system.mem_ctrls0.wrQLenPdf::26                 31722                       # What write queue length does an incoming req see
system.mem_ctrls0.wrQLenPdf::27                 31703                       # What write queue length does an incoming req see
system.mem_ctrls0.wrQLenPdf::28                 31717                       # What write queue length does an incoming req see
system.mem_ctrls0.wrQLenPdf::29                 31688                       # What write queue length does an incoming req see
system.mem_ctrls0.wrQLenPdf::30                 31677                       # What write queue length does an incoming req see
system.mem_ctrls0.wrQLenPdf::31                 31556                       # What write queue length does an incoming req see
system.mem_ctrls0.wrQLenPdf::32                 31551                       # What write queue length does an incoming req see
system.mem_ctrls0.wrQLenPdf::33                    41                       # What write queue length does an incoming req see
system.mem_ctrls0.wrQLenPdf::34                     2                       # What write queue length does an incoming req see
system.mem_ctrls0.wrQLenPdf::35                     0                       # What write queue length does an incoming req see
system.mem_ctrls0.wrQLenPdf::36                     0                       # What write queue length does an incoming req see
system.mem_ctrls0.wrQLenPdf::37                     0                       # What write queue length does an incoming req see
system.mem_ctrls0.wrQLenPdf::38                     0                       # What write queue length does an incoming req see
system.mem_ctrls0.wrQLenPdf::39                     0                       # What write queue length does an incoming req see
system.mem_ctrls0.wrQLenPdf::40                     0                       # What write queue length does an incoming req see
system.mem_ctrls0.wrQLenPdf::41                     0                       # What write queue length does an incoming req see
system.mem_ctrls0.wrQLenPdf::42                     0                       # What write queue length does an incoming req see
system.mem_ctrls0.wrQLenPdf::43                     0                       # What write queue length does an incoming req see
system.mem_ctrls0.wrQLenPdf::44                     0                       # What write queue length does an incoming req see
system.mem_ctrls0.wrQLenPdf::45                     0                       # What write queue length does an incoming req see
system.mem_ctrls0.wrQLenPdf::46                     0                       # What write queue length does an incoming req see
system.mem_ctrls0.wrQLenPdf::47                     0                       # What write queue length does an incoming req see
system.mem_ctrls0.wrQLenPdf::48                     0                       # What write queue length does an incoming req see
system.mem_ctrls0.wrQLenPdf::49                     0                       # What write queue length does an incoming req see
system.mem_ctrls0.wrQLenPdf::50                     0                       # What write queue length does an incoming req see
system.mem_ctrls0.wrQLenPdf::51                     0                       # What write queue length does an incoming req see
system.mem_ctrls0.wrQLenPdf::52                     0                       # What write queue length does an incoming req see
system.mem_ctrls0.wrQLenPdf::53                     0                       # What write queue length does an incoming req see
system.mem_ctrls0.wrQLenPdf::54                     0                       # What write queue length does an incoming req see
system.mem_ctrls0.wrQLenPdf::55                     0                       # What write queue length does an incoming req see
system.mem_ctrls0.wrQLenPdf::56                     0                       # What write queue length does an incoming req see
system.mem_ctrls0.wrQLenPdf::57                     0                       # What write queue length does an incoming req see
system.mem_ctrls0.wrQLenPdf::58                     0                       # What write queue length does an incoming req see
system.mem_ctrls0.wrQLenPdf::59                     0                       # What write queue length does an incoming req see
system.mem_ctrls0.wrQLenPdf::60                     0                       # What write queue length does an incoming req see
system.mem_ctrls0.wrQLenPdf::61                     0                       # What write queue length does an incoming req see
system.mem_ctrls0.wrQLenPdf::62                     0                       # What write queue length does an incoming req see
system.mem_ctrls0.wrQLenPdf::63                     0                       # What write queue length does an incoming req see
system.mem_ctrls0.bytesPerActivate::samples      1970536                       # Bytes accessed per row activation
system.mem_ctrls0.bytesPerActivate::mean    70.418851                       # Bytes accessed per row activation
system.mem_ctrls0.bytesPerActivate::gmean    67.624602                       # Bytes accessed per row activation
system.mem_ctrls0.bytesPerActivate::stdev    30.978508                       # Bytes accessed per row activation
system.mem_ctrls0.bytesPerActivate::0-127      1852259     94.00%     94.00% # Bytes accessed per row activation
system.mem_ctrls0.bytesPerActivate::128-255        98036      4.98%     98.97% # Bytes accessed per row activation
system.mem_ctrls0.bytesPerActivate::256-383        16327      0.83%     99.80% # Bytes accessed per row activation
system.mem_ctrls0.bytesPerActivate::384-511         3279      0.17%     99.97% # Bytes accessed per row activation
system.mem_ctrls0.bytesPerActivate::512-639          532      0.03%     99.99% # Bytes accessed per row activation
system.mem_ctrls0.bytesPerActivate::640-767           81      0.00%    100.00% # Bytes accessed per row activation
system.mem_ctrls0.bytesPerActivate::768-895           15      0.00%    100.00% # Bytes accessed per row activation
system.mem_ctrls0.bytesPerActivate::896-1023            4      0.00%    100.00% # Bytes accessed per row activation
system.mem_ctrls0.bytesPerActivate::1024-1151            3      0.00%    100.00% # Bytes accessed per row activation
system.mem_ctrls0.bytesPerActivate::total      1970536                       # Bytes accessed per row activation
system.mem_ctrls0.rdPerTurnAround::samples        31538                       # Reads before turning the bus around for writes
system.mem_ctrls0.rdPerTurnAround::mean     51.415245                       # Reads before turning the bus around for writes
system.mem_ctrls0.rdPerTurnAround::gmean    48.596453                       # Reads before turning the bus around for writes
system.mem_ctrls0.rdPerTurnAround::stdev   115.801267                       # Reads before turning the bus around for writes
system.mem_ctrls0.rdPerTurnAround::0-1023        31535     99.99%     99.99% # Reads before turning the bus around for writes
system.mem_ctrls0.rdPerTurnAround::1024-2047            1      0.00%     99.99% # Reads before turning the bus around for writes
system.mem_ctrls0.rdPerTurnAround::2048-3071            1      0.00%    100.00% # Reads before turning the bus around for writes
system.mem_ctrls0.rdPerTurnAround::19456-20479            1      0.00%    100.00% # Reads before turning the bus around for writes
system.mem_ctrls0.rdPerTurnAround::total        31538                       # Reads before turning the bus around for writes
system.mem_ctrls0.wrPerTurnAround::samples        31538                       # Writes before turning the bus around for reads
system.mem_ctrls0.wrPerTurnAround::mean     17.331854                       # Writes before turning the bus around for reads
system.mem_ctrls0.wrPerTurnAround::gmean    17.302282                       # Writes before turning the bus around for reads
system.mem_ctrls0.wrPerTurnAround::stdev     1.004521                       # Writes before turning the bus around for reads
system.mem_ctrls0.wrPerTurnAround::16           10824     34.32%     34.32% # Writes before turning the bus around for reads
system.mem_ctrls0.wrPerTurnAround::17             859      2.72%     37.04% # Writes before turning the bus around for reads
system.mem_ctrls0.wrPerTurnAround::18           18537     58.78%     95.82% # Writes before turning the bus around for reads
system.mem_ctrls0.wrPerTurnAround::19            1212      3.84%     99.66% # Writes before turning the bus around for reads
system.mem_ctrls0.wrPerTurnAround::20             102      0.32%     99.99% # Writes before turning the bus around for reads
system.mem_ctrls0.wrPerTurnAround::21               3      0.01%    100.00% # Writes before turning the bus around for reads
system.mem_ctrls0.wrPerTurnAround::28               1      0.00%    100.00% # Writes before turning the bus around for reads
system.mem_ctrls0.wrPerTurnAround::total        31538                       # Writes before turning the bus around for reads
system.mem_ctrls0.totQLat                 88673602147                       # Total ticks spent queuing
system.mem_ctrls0.totMemAccLat           119077945897                       # Total ticks spent from burst creation until serviced by the DRAM
system.mem_ctrls0.totBusLat                8107825000                       # Total ticks spent in databus transfers
system.mem_ctrls0.avgQLat                    54683.96                       # Average queueing delay per DRAM burst
system.mem_ctrls0.avgBusLat                   5000.00                       # Average bus latency per DRAM burst
system.mem_ctrls0.avgMemAccLat               73433.96                       # Average memory access latency per DRAM burst
system.mem_ctrls0.avgRdBW                       60.39                       # Average DRAM read bandwidth in MiByte/s
system.mem_ctrls0.avgWrBW                       20.36                       # Average achieved write bandwidth in MiByte/s
system.mem_ctrls0.avgRdBWSys                    60.40                       # Average system read bandwidth in MiByte/s
system.mem_ctrls0.avgWrBWSys                    20.36                       # Average system write bandwidth in MiByte/s
system.mem_ctrls0.peakBW                     12800.00                       # Theoretical peak bandwidth in MiByte/s
system.mem_ctrls0.busUtil                        0.63                       # Data bus utilization in percentage
system.mem_ctrls0.busUtilRead                    0.47                       # Data bus utilization in percentage for reads
system.mem_ctrls0.busUtilWrite                   0.16                       # Data bus utilization in percentage for writes
system.mem_ctrls0.avgRdQLen                      1.01                       # Average read queue length when enqueuing
system.mem_ctrls0.avgWrQLen                     24.36                       # Average write queue length when enqueuing
system.mem_ctrls0.readRowHits                   24393                       # Number of row buffer hits during reads
system.mem_ctrls0.writeRowHits                 173241                       # Number of row buffer hits during writes
system.mem_ctrls0.readRowHitRate                 1.50                       # Row buffer hit rate for reads
system.mem_ctrls0.writeRowHitRate               31.69                       # Row buffer hit rate for writes
system.mem_ctrls0.avgGap                    792437.85                       # Average gap between requests
system.mem_ctrls0.pageHitRate                    9.12                       # Row buffer hit rate, read and write combined
system.mem_ctrls0_0.actEnergy              7103743080                       # Energy for activate commands per rank (pJ)
system.mem_ctrls0_0.preEnergy              3775713810                       # Energy for precharge commands per rank (pJ)
system.mem_ctrls0_0.readEnergy             5854371600                       # Energy for read commands per rank (pJ)
system.mem_ctrls0_0.writeEnergy            1435406040                       # Energy for write commands per rank (pJ)
system.mem_ctrls0_0.refreshEnergy        135080047440.000031                       # Energy for refresh commands per rank (pJ)
system.mem_ctrls0_0.actBackEnergy         68793952080                       # Energy for active background per rank (pJ)
system.mem_ctrls0_0.preBackEnergy          6959246880                       # Energy for precharge background per rank (pJ)
system.mem_ctrls0_0.actPowerDownEnergy   369263654610                       # Energy for active power-down per rank (pJ)
system.mem_ctrls0_0.prePowerDownEnergy   186578343840                       # Energy for precharge power-down per rank (pJ)
system.mem_ctrls0_0.selfRefreshEnergy     79693928490                       # Energy for self refresh per rank (pJ)
system.mem_ctrls0_0.totalEnergy          864602215590                       # Total energy per rank (pJ)
system.mem_ctrls0_0.averagePower           503.143397                       # Core power per rank (mW)
system.mem_ctrls0_0.totalIdleTime        1549273897821                       # Total Idle time Per DRAM Rank
system.mem_ctrls0_0.memoryStateTime::IDLE   9941439016                       # Time in different power states
system.mem_ctrls0_0.memoryStateTime::REF  57350364000                       # Time in different power states
system.mem_ctrls0_0.memoryStateTime::SREF 253602443062                       # Time in different power states
system.mem_ctrls0_0.memoryStateTime::PRE_PDN 485878996928                       # Time in different power states
system.mem_ctrls0_0.memoryStateTime::ACT 101835041505                       # Time in different power states
system.mem_ctrls0_0.memoryStateTime::ACT_PDN 809792875874                       # Time in different power states
system.mem_ctrls0_1.actEnergy              6965933940                       # Energy for activate commands per rank (pJ)
system.mem_ctrls0_1.preEnergy              3702470310                       # Energy for precharge commands per rank (pJ)
system.mem_ctrls0_1.readEnergy             5723602500                       # Energy for read commands per rank (pJ)
system.mem_ctrls0_1.writeEnergy            1417908600                       # Energy for write commands per rank (pJ)
system.mem_ctrls0_1.refreshEnergy        137460548160.000031                       # Energy for refresh commands per rank (pJ)
system.mem_ctrls0_1.actBackEnergy         67694096040                       # Energy for active background per rank (pJ)
system.mem_ctrls0_1.preBackEnergy          6778896960                       # Energy for precharge background per rank (pJ)
system.mem_ctrls0_1.actPowerDownEnergy   381890006760                       # Energy for active power-down per rank (pJ)
system.mem_ctrls0_1.prePowerDownEnergy   191237545920                       # Energy for precharge power-down per rank (pJ)
system.mem_ctrls0_1.selfRefreshEnergy     70314393120                       # Energy for self refresh per rank (pJ)
system.mem_ctrls0_1.totalEnergy          873261606870                       # Total energy per rank (pJ)
system.mem_ctrls0_1.averagePower           508.182614                       # Core power per rank (mW)
system.mem_ctrls0_1.totalIdleTime        1552126701565                       # Total Idle time Per DRAM Rank
system.mem_ctrls0_1.memoryStateTime::IDLE   9714898417                       # Time in different power states
system.mem_ctrls0_1.memoryStateTime::REF  58352742000                       # Time in different power states
system.mem_ctrls0_1.memoryStateTime::SREF 216633611631                       # Time in different power states
system.mem_ctrls0_1.memoryStateTime::PRE_PDN 498013345197                       # Time in different power states
system.mem_ctrls0_1.memoryStateTime::ACT  98205841017                       # Time in different power states
system.mem_ctrls0_1.memoryStateTime::ACT_PDN 837480722123                       # Time in different power states
system.mem_ctrls1.pwrStateResidencyTicks::UNDEFINED 35021779084746                       # Cumulative time (in ticks) in various power states
system.mem_ctrls1.bytes_read::cpu.inst             64                       # Number of bytes read from this memory
system.mem_ctrls1.bytes_read::cpu.data            192                       # Number of bytes read from this memory
system.mem_ctrls1.bytes_read::switch_cpus.inst         8128                       # Number of bytes read from this memory
system.mem_ctrls1.bytes_read::switch_cpus.data     86245632                       # Number of bytes read from this memory
system.mem_ctrls1.bytes_read::switch_cpus_1.data     17660288                       # Number of bytes read from this memory
system.mem_ctrls1.bytes_read::total         103914304                       # Number of bytes read from this memory
system.mem_ctrls1.bytes_inst_read::cpu.inst           64                       # Number of instructions bytes read from this memory
system.mem_ctrls1.bytes_inst_read::switch_cpus.inst         8128                       # Number of instructions bytes read from this memory
system.mem_ctrls1.bytes_inst_read::total         8192                       # Number of instructions bytes read from this memory
system.mem_ctrls1.bytes_written::writebacks     34998720                       # Number of bytes written to this memory
system.mem_ctrls1.bytes_written::total       34998720                       # Number of bytes written to this memory
system.mem_ctrls1.num_reads::cpu.inst               1                       # Number of read requests responded to by this memory
system.mem_ctrls1.num_reads::cpu.data               3                       # Number of read requests responded to by this memory
system.mem_ctrls1.num_reads::switch_cpus.inst          127                       # Number of read requests responded to by this memory
system.mem_ctrls1.num_reads::switch_cpus.data      1347588                       # Number of read requests responded to by this memory
system.mem_ctrls1.num_reads::switch_cpus_1.data       275942                       # Number of read requests responded to by this memory
system.mem_ctrls1.num_reads::total            1623661                       # Number of read requests responded to by this memory
system.mem_ctrls1.num_writes::writebacks       546855                       # Number of write requests responded to by this memory
system.mem_ctrls1.num_writes::total            546855                       # Number of write requests responded to by this memory
system.mem_ctrls1.bw_read::cpu.inst                37                       # Total read bandwidth from this memory (bytes/s)
system.mem_ctrls1.bw_read::cpu.data               112                       # Total read bandwidth from this memory (bytes/s)
system.mem_ctrls1.bw_read::switch_cpus.inst         4730                       # Total read bandwidth from this memory (bytes/s)
system.mem_ctrls1.bw_read::switch_cpus.data     50189463                       # Total read bandwidth from this memory (bytes/s)
system.mem_ctrls1.bw_read::switch_cpus_1.data     10277163                       # Total read bandwidth from this memory (bytes/s)
system.mem_ctrls1.bw_read::total             60471505                       # Total read bandwidth from this memory (bytes/s)
system.mem_ctrls1.bw_inst_read::cpu.inst           37                       # Instruction read bandwidth from this memory (bytes/s)
system.mem_ctrls1.bw_inst_read::switch_cpus.inst         4730                       # Instruction read bandwidth from this memory (bytes/s)
system.mem_ctrls1.bw_inst_read::total            4767                       # Instruction read bandwidth from this memory (bytes/s)
system.mem_ctrls1.bw_write::writebacks       20367025                       # Write bandwidth from this memory (bytes/s)
system.mem_ctrls1.bw_write::total            20367025                       # Write bandwidth from this memory (bytes/s)
system.mem_ctrls1.bw_total::writebacks       20367025                       # Total bandwidth to/from this memory (bytes/s)
system.mem_ctrls1.bw_total::cpu.inst               37                       # Total bandwidth to/from this memory (bytes/s)
system.mem_ctrls1.bw_total::cpu.data              112                       # Total bandwidth to/from this memory (bytes/s)
system.mem_ctrls1.bw_total::switch_cpus.inst         4730                       # Total bandwidth to/from this memory (bytes/s)
system.mem_ctrls1.bw_total::switch_cpus.data     50189463                       # Total bandwidth to/from this memory (bytes/s)
system.mem_ctrls1.bw_total::switch_cpus_1.data     10277163                       # Total bandwidth to/from this memory (bytes/s)
system.mem_ctrls1.bw_total::total            80838530                       # Total bandwidth to/from this memory (bytes/s)
system.mem_ctrls1.readReqs                    1623661                       # Number of read requests accepted
system.mem_ctrls1.writeReqs                    546855                       # Number of write requests accepted
system.mem_ctrls1.readBursts                  1623661                       # Number of DRAM read bursts, including those serviced by the write queue
system.mem_ctrls1.writeBursts                  546855                       # Number of DRAM write bursts, including those merged in the write queue
system.mem_ctrls1.bytesReadDRAM             103894656                       # Total number of bytes read from DRAM
system.mem_ctrls1.bytesReadWrQ                  19648                       # Total number of bytes read from write queue
system.mem_ctrls1.bytesWritten               34996928                       # Total number of bytes written to DRAM
system.mem_ctrls1.bytesReadSys              103914304                       # Total read bytes from the system interface side
system.mem_ctrls1.bytesWrittenSys            34998720                       # Total written bytes from the system interface side
system.mem_ctrls1.servicedByWrQ                   307                       # Number of DRAM read bursts serviced by the write queue
system.mem_ctrls1.mergedWrBursts                    0                       # Number of DRAM write bursts merged with an existing one
system.mem_ctrls1.neitherReadNorWriteReqs            0                       # Number of requests that are neither read nor write
system.mem_ctrls1.perBankRdBursts::0           105835                       # Per bank write bursts
system.mem_ctrls1.perBankRdBursts::1           103534                       # Per bank write bursts
system.mem_ctrls1.perBankRdBursts::2           103828                       # Per bank write bursts
system.mem_ctrls1.perBankRdBursts::3           100979                       # Per bank write bursts
system.mem_ctrls1.perBankRdBursts::4           101852                       # Per bank write bursts
system.mem_ctrls1.perBankRdBursts::5           101595                       # Per bank write bursts
system.mem_ctrls1.perBankRdBursts::6           101214                       # Per bank write bursts
system.mem_ctrls1.perBankRdBursts::7           101798                       # Per bank write bursts
system.mem_ctrls1.perBankRdBursts::8           100996                       # Per bank write bursts
system.mem_ctrls1.perBankRdBursts::9            99562                       # Per bank write bursts
system.mem_ctrls1.perBankRdBursts::10           99699                       # Per bank write bursts
system.mem_ctrls1.perBankRdBursts::11           99787                       # Per bank write bursts
system.mem_ctrls1.perBankRdBursts::12           98725                       # Per bank write bursts
system.mem_ctrls1.perBankRdBursts::13           98799                       # Per bank write bursts
system.mem_ctrls1.perBankRdBursts::14          101197                       # Per bank write bursts
system.mem_ctrls1.perBankRdBursts::15          103954                       # Per bank write bursts
system.mem_ctrls1.perBankWrBursts::0            36430                       # Per bank write bursts
system.mem_ctrls1.perBankWrBursts::1            35348                       # Per bank write bursts
system.mem_ctrls1.perBankWrBursts::2            34817                       # Per bank write bursts
system.mem_ctrls1.perBankWrBursts::3            33660                       # Per bank write bursts
system.mem_ctrls1.perBankWrBursts::4            33637                       # Per bank write bursts
system.mem_ctrls1.perBankWrBursts::5            33583                       # Per bank write bursts
system.mem_ctrls1.perBankWrBursts::6            33583                       # Per bank write bursts
system.mem_ctrls1.perBankWrBursts::7            33967                       # Per bank write bursts
system.mem_ctrls1.perBankWrBursts::8            33610                       # Per bank write bursts
system.mem_ctrls1.perBankWrBursts::9            33320                       # Per bank write bursts
system.mem_ctrls1.perBankWrBursts::10           33831                       # Per bank write bursts
system.mem_ctrls1.perBankWrBursts::11           33740                       # Per bank write bursts
system.mem_ctrls1.perBankWrBursts::12           33598                       # Per bank write bursts
system.mem_ctrls1.perBankWrBursts::13           33595                       # Per bank write bursts
system.mem_ctrls1.perBankWrBursts::14           34506                       # Per bank write bursts
system.mem_ctrls1.perBankWrBursts::15           35602                       # Per bank write bursts
system.mem_ctrls1.numRdRetry                        0                       # Number of times read queue was full causing retry
system.mem_ctrls1.numWrRetry                        0                       # Number of times write queue was full causing retry
system.mem_ctrls1.totGap                 1718400558654                       # Total gap between requests
system.mem_ctrls1.readPktSize::0                    0                       # Read request sizes (log2)
system.mem_ctrls1.readPktSize::1                    0                       # Read request sizes (log2)
system.mem_ctrls1.readPktSize::2                    0                       # Read request sizes (log2)
system.mem_ctrls1.readPktSize::3                    0                       # Read request sizes (log2)
system.mem_ctrls1.readPktSize::4                    0                       # Read request sizes (log2)
system.mem_ctrls1.readPktSize::5                    0                       # Read request sizes (log2)
system.mem_ctrls1.readPktSize::6              1623661                       # Read request sizes (log2)
system.mem_ctrls1.writePktSize::0                   0                       # Write request sizes (log2)
system.mem_ctrls1.writePktSize::1                   0                       # Write request sizes (log2)
system.mem_ctrls1.writePktSize::2                   0                       # Write request sizes (log2)
system.mem_ctrls1.writePktSize::3                   0                       # Write request sizes (log2)
system.mem_ctrls1.writePktSize::4                   0                       # Write request sizes (log2)
system.mem_ctrls1.writePktSize::5                   0                       # Write request sizes (log2)
system.mem_ctrls1.writePktSize::6              546855                       # Write request sizes (log2)
system.mem_ctrls1.rdQLenPdf::0                1538171                       # What read queue length does an incoming req see
system.mem_ctrls1.rdQLenPdf::1                  76586                       # What read queue length does an incoming req see
system.mem_ctrls1.rdQLenPdf::2                   8249                       # What read queue length does an incoming req see
system.mem_ctrls1.rdQLenPdf::3                    348                       # What read queue length does an incoming req see
system.mem_ctrls1.rdQLenPdf::4                      0                       # What read queue length does an incoming req see
system.mem_ctrls1.rdQLenPdf::5                      0                       # What read queue length does an incoming req see
system.mem_ctrls1.rdQLenPdf::6                      0                       # What read queue length does an incoming req see
system.mem_ctrls1.rdQLenPdf::7                      0                       # What read queue length does an incoming req see
system.mem_ctrls1.rdQLenPdf::8                      0                       # What read queue length does an incoming req see
system.mem_ctrls1.rdQLenPdf::9                      0                       # What read queue length does an incoming req see
system.mem_ctrls1.rdQLenPdf::10                     0                       # What read queue length does an incoming req see
system.mem_ctrls1.rdQLenPdf::11                     0                       # What read queue length does an incoming req see
system.mem_ctrls1.rdQLenPdf::12                     0                       # What read queue length does an incoming req see
system.mem_ctrls1.rdQLenPdf::13                     0                       # What read queue length does an incoming req see
system.mem_ctrls1.rdQLenPdf::14                     0                       # What read queue length does an incoming req see
system.mem_ctrls1.rdQLenPdf::15                     0                       # What read queue length does an incoming req see
system.mem_ctrls1.rdQLenPdf::16                     0                       # What read queue length does an incoming req see
system.mem_ctrls1.rdQLenPdf::17                     0                       # What read queue length does an incoming req see
system.mem_ctrls1.rdQLenPdf::18                     0                       # What read queue length does an incoming req see
system.mem_ctrls1.rdQLenPdf::19                     0                       # What read queue length does an incoming req see
system.mem_ctrls1.rdQLenPdf::20                     0                       # What read queue length does an incoming req see
system.mem_ctrls1.rdQLenPdf::21                     0                       # What read queue length does an incoming req see
system.mem_ctrls1.rdQLenPdf::22                     0                       # What read queue length does an incoming req see
system.mem_ctrls1.rdQLenPdf::23                     0                       # What read queue length does an incoming req see
system.mem_ctrls1.rdQLenPdf::24                     0                       # What read queue length does an incoming req see
system.mem_ctrls1.rdQLenPdf::25                     0                       # What read queue length does an incoming req see
system.mem_ctrls1.rdQLenPdf::26                     0                       # What read queue length does an incoming req see
system.mem_ctrls1.rdQLenPdf::27                     0                       # What read queue length does an incoming req see
system.mem_ctrls1.rdQLenPdf::28                     0                       # What read queue length does an incoming req see
system.mem_ctrls1.rdQLenPdf::29                     0                       # What read queue length does an incoming req see
system.mem_ctrls1.rdQLenPdf::30                     0                       # What read queue length does an incoming req see
system.mem_ctrls1.rdQLenPdf::31                     0                       # What read queue length does an incoming req see
system.mem_ctrls1.wrQLenPdf::0                      2                       # What write queue length does an incoming req see
system.mem_ctrls1.wrQLenPdf::1                      2                       # What write queue length does an incoming req see
system.mem_ctrls1.wrQLenPdf::2                      2                       # What write queue length does an incoming req see
system.mem_ctrls1.wrQLenPdf::3                      2                       # What write queue length does an incoming req see
system.mem_ctrls1.wrQLenPdf::4                      2                       # What write queue length does an incoming req see
system.mem_ctrls1.wrQLenPdf::5                      2                       # What write queue length does an incoming req see
system.mem_ctrls1.wrQLenPdf::6                      2                       # What write queue length does an incoming req see
system.mem_ctrls1.wrQLenPdf::7                      2                       # What write queue length does an incoming req see
system.mem_ctrls1.wrQLenPdf::8                      2                       # What write queue length does an incoming req see
system.mem_ctrls1.wrQLenPdf::9                      2                       # What write queue length does an incoming req see
system.mem_ctrls1.wrQLenPdf::10                     2                       # What write queue length does an incoming req see
system.mem_ctrls1.wrQLenPdf::11                     2                       # What write queue length does an incoming req see
system.mem_ctrls1.wrQLenPdf::12                     2                       # What write queue length does an incoming req see
system.mem_ctrls1.wrQLenPdf::13                     2                       # What write queue length does an incoming req see
system.mem_ctrls1.wrQLenPdf::14                     2                       # What write queue length does an incoming req see
system.mem_ctrls1.wrQLenPdf::15                 19805                       # What write queue length does an incoming req see
system.mem_ctrls1.wrQLenPdf::16                 20729                       # What write queue length does an incoming req see
system.mem_ctrls1.wrQLenPdf::17                 30623                       # What write queue length does an incoming req see
system.mem_ctrls1.wrQLenPdf::18                 31604                       # What write queue length does an incoming req see
system.mem_ctrls1.wrQLenPdf::19                 31661                       # What write queue length does an incoming req see
system.mem_ctrls1.wrQLenPdf::20                 31673                       # What write queue length does an incoming req see
system.mem_ctrls1.wrQLenPdf::21                 31689                       # What write queue length does an incoming req see
system.mem_ctrls1.wrQLenPdf::22                 31941                       # What write queue length does an incoming req see
system.mem_ctrls1.wrQLenPdf::23                 31886                       # What write queue length does an incoming req see
system.mem_ctrls1.wrQLenPdf::24                 31774                       # What write queue length does an incoming req see
system.mem_ctrls1.wrQLenPdf::25                 31750                       # What write queue length does an incoming req see
system.mem_ctrls1.wrQLenPdf::26                 31716                       # What write queue length does an incoming req see
system.mem_ctrls1.wrQLenPdf::27                 31724                       # What write queue length does an incoming req see
system.mem_ctrls1.wrQLenPdf::28                 31709                       # What write queue length does an incoming req see
system.mem_ctrls1.wrQLenPdf::29                 31678                       # What write queue length does an incoming req see
system.mem_ctrls1.wrQLenPdf::30                 31673                       # What write queue length does an incoming req see
system.mem_ctrls1.wrQLenPdf::31                 31571                       # What write queue length does an incoming req see
system.mem_ctrls1.wrQLenPdf::32                 31553                       # What write queue length does an incoming req see
system.mem_ctrls1.wrQLenPdf::33                    61                       # What write queue length does an incoming req see
system.mem_ctrls1.wrQLenPdf::34                     5                       # What write queue length does an incoming req see
system.mem_ctrls1.wrQLenPdf::35                     0                       # What write queue length does an incoming req see
system.mem_ctrls1.wrQLenPdf::36                     0                       # What write queue length does an incoming req see
system.mem_ctrls1.wrQLenPdf::37                     0                       # What write queue length does an incoming req see
system.mem_ctrls1.wrQLenPdf::38                     0                       # What write queue length does an incoming req see
system.mem_ctrls1.wrQLenPdf::39                     0                       # What write queue length does an incoming req see
system.mem_ctrls1.wrQLenPdf::40                     0                       # What write queue length does an incoming req see
system.mem_ctrls1.wrQLenPdf::41                     0                       # What write queue length does an incoming req see
system.mem_ctrls1.wrQLenPdf::42                     0                       # What write queue length does an incoming req see
system.mem_ctrls1.wrQLenPdf::43                     0                       # What write queue length does an incoming req see
system.mem_ctrls1.wrQLenPdf::44                     0                       # What write queue length does an incoming req see
system.mem_ctrls1.wrQLenPdf::45                     0                       # What write queue length does an incoming req see
system.mem_ctrls1.wrQLenPdf::46                     0                       # What write queue length does an incoming req see
system.mem_ctrls1.wrQLenPdf::47                     0                       # What write queue length does an incoming req see
system.mem_ctrls1.wrQLenPdf::48                     0                       # What write queue length does an incoming req see
system.mem_ctrls1.wrQLenPdf::49                     0                       # What write queue length does an incoming req see
system.mem_ctrls1.wrQLenPdf::50                     0                       # What write queue length does an incoming req see
system.mem_ctrls1.wrQLenPdf::51                     0                       # What write queue length does an incoming req see
system.mem_ctrls1.wrQLenPdf::52                     0                       # What write queue length does an incoming req see
system.mem_ctrls1.wrQLenPdf::53                     0                       # What write queue length does an incoming req see
system.mem_ctrls1.wrQLenPdf::54                     0                       # What write queue length does an incoming req see
system.mem_ctrls1.wrQLenPdf::55                     0                       # What write queue length does an incoming req see
system.mem_ctrls1.wrQLenPdf::56                     0                       # What write queue length does an incoming req see
system.mem_ctrls1.wrQLenPdf::57                     0                       # What write queue length does an incoming req see
system.mem_ctrls1.wrQLenPdf::58                     0                       # What write queue length does an incoming req see
system.mem_ctrls1.wrQLenPdf::59                     0                       # What write queue length does an incoming req see
system.mem_ctrls1.wrQLenPdf::60                     0                       # What write queue length does an incoming req see
system.mem_ctrls1.wrQLenPdf::61                     0                       # What write queue length does an incoming req see
system.mem_ctrls1.wrQLenPdf::62                     0                       # What write queue length does an incoming req see
system.mem_ctrls1.wrQLenPdf::63                     0                       # What write queue length does an incoming req see
system.mem_ctrls1.bytesPerActivate::samples      1973160                       # Bytes accessed per row activation
system.mem_ctrls1.bytesPerActivate::mean    70.390269                       # Bytes accessed per row activation
system.mem_ctrls1.bytesPerActivate::gmean    67.607214                       # Bytes accessed per row activation
system.mem_ctrls1.bytesPerActivate::stdev    30.939724                       # Bytes accessed per row activation
system.mem_ctrls1.bytesPerActivate::0-127      1855227     94.02%     94.02% # Bytes accessed per row activation
system.mem_ctrls1.bytesPerActivate::128-255        97769      4.95%     98.98% # Bytes accessed per row activation
system.mem_ctrls1.bytesPerActivate::256-383        16320      0.83%     99.81% # Bytes accessed per row activation
system.mem_ctrls1.bytesPerActivate::384-511         3215      0.16%     99.97% # Bytes accessed per row activation
system.mem_ctrls1.bytesPerActivate::512-639          504      0.03%     99.99% # Bytes accessed per row activation
system.mem_ctrls1.bytesPerActivate::640-767          105      0.01%    100.00% # Bytes accessed per row activation
system.mem_ctrls1.bytesPerActivate::768-895           13      0.00%    100.00% # Bytes accessed per row activation
system.mem_ctrls1.bytesPerActivate::896-1023            6      0.00%    100.00% # Bytes accessed per row activation
system.mem_ctrls1.bytesPerActivate::1024-1151            1      0.00%    100.00% # Bytes accessed per row activation
system.mem_ctrls1.bytesPerActivate::total      1973160                       # Bytes accessed per row activation
system.mem_ctrls1.rdPerTurnAround::samples        31549                       # Reads before turning the bus around for writes
system.mem_ctrls1.rdPerTurnAround::mean     51.454024                       # Reads before turning the bus around for writes
system.mem_ctrls1.rdPerTurnAround::gmean    48.622440                       # Reads before turning the bus around for writes
system.mem_ctrls1.rdPerTurnAround::stdev   115.465994                       # Reads before turning the bus around for writes
system.mem_ctrls1.rdPerTurnAround::0-1023        31544     99.98%     99.98% # Reads before turning the bus around for writes
system.mem_ctrls1.rdPerTurnAround::1024-2047            4      0.01%    100.00% # Reads before turning the bus around for writes
system.mem_ctrls1.rdPerTurnAround::19456-20479            1      0.00%    100.00% # Reads before turning the bus around for writes
system.mem_ctrls1.rdPerTurnAround::total        31549                       # Reads before turning the bus around for writes
system.mem_ctrls1.wrPerTurnAround::samples        31549                       # Writes before turning the bus around for reads
system.mem_ctrls1.wrPerTurnAround::mean     17.332625                       # Writes before turning the bus around for reads
system.mem_ctrls1.wrPerTurnAround::gmean    17.303188                       # Writes before turning the bus around for reads
system.mem_ctrls1.wrPerTurnAround::stdev     1.001543                       # Writes before turning the bus around for reads
system.mem_ctrls1.wrPerTurnAround::16           10818     34.29%     34.29% # Writes before turning the bus around for reads
system.mem_ctrls1.wrPerTurnAround::17             838      2.66%     36.95% # Writes before turning the bus around for reads
system.mem_ctrls1.wrPerTurnAround::18           18555     58.81%     95.76% # Writes before turning the bus around for reads
system.mem_ctrls1.wrPerTurnAround::19            1260      3.99%     99.75% # Writes before turning the bus around for reads
system.mem_ctrls1.wrPerTurnAround::20              75      0.24%     99.99% # Writes before turning the bus around for reads
system.mem_ctrls1.wrPerTurnAround::21               3      0.01%    100.00% # Writes before turning the bus around for reads
system.mem_ctrls1.wrPerTurnAround::total        31549                       # Writes before turning the bus around for reads
system.mem_ctrls1.totQLat                 88677221031                       # Total ticks spent queuing
system.mem_ctrls1.totMemAccLat           119115108531                       # Total ticks spent from burst creation until serviced by the DRAM
system.mem_ctrls1.totBusLat                8116770000                       # Total ticks spent in databus transfers
system.mem_ctrls1.avgQLat                    54625.93                       # Average queueing delay per DRAM burst
system.mem_ctrls1.avgBusLat                   5000.00                       # Average bus latency per DRAM burst
system.mem_ctrls1.avgMemAccLat               73375.93                       # Average memory access latency per DRAM burst
system.mem_ctrls1.avgRdBW                       60.46                       # Average DRAM read bandwidth in MiByte/s
system.mem_ctrls1.avgWrBW                       20.37                       # Average achieved write bandwidth in MiByte/s
system.mem_ctrls1.avgRdBWSys                    60.47                       # Average system read bandwidth in MiByte/s
system.mem_ctrls1.avgWrBWSys                    20.37                       # Average system write bandwidth in MiByte/s
system.mem_ctrls1.peakBW                     12800.00                       # Theoretical peak bandwidth in MiByte/s
system.mem_ctrls1.busUtil                        0.63                       # Data bus utilization in percentage
system.mem_ctrls1.busUtilRead                    0.47                       # Data bus utilization in percentage for reads
system.mem_ctrls1.busUtilWrite                   0.16                       # Data bus utilization in percentage for writes
system.mem_ctrls1.avgRdQLen                      1.01                       # Average read queue length when enqueuing
system.mem_ctrls1.avgWrQLen                     24.35                       # Average write queue length when enqueuing
system.mem_ctrls1.readRowHits                   24165                       # Number of row buffer hits during reads
system.mem_ctrls1.writeRowHits                 172851                       # Number of row buffer hits during writes
system.mem_ctrls1.readRowHitRate                 1.49                       # Row buffer hit rate for reads
system.mem_ctrls1.writeRowHitRate               31.61                       # Row buffer hit rate for writes
system.mem_ctrls1.avgGap                    791701.40                       # Average gap between requests
system.mem_ctrls1.pageHitRate                    9.08                       # Row buffer hit rate, read and write combined
system.mem_ctrls1_0.actEnergy              7110183360                       # Energy for activate commands per rank (pJ)
system.mem_ctrls1_0.preEnergy              3779144490                       # Energy for precharge commands per rank (pJ)
system.mem_ctrls1_0.readEnergy             5859333900                       # Energy for read commands per rank (pJ)
system.mem_ctrls1_0.writeEnergy            1435630500                       # Energy for write commands per rank (pJ)
system.mem_ctrls1_0.refreshEnergy        135171628800.000031                       # Energy for refresh commands per rank (pJ)
system.mem_ctrls1_0.actBackEnergy         68814522240                       # Energy for active background per rank (pJ)
system.mem_ctrls1_0.preBackEnergy          6959207040                       # Energy for precharge background per rank (pJ)
system.mem_ctrls1_0.actPowerDownEnergy   369409329510                       # Energy for active power-down per rank (pJ)
system.mem_ctrls1_0.prePowerDownEnergy   186628337280                       # Energy for precharge power-down per rank (pJ)
system.mem_ctrls1_0.selfRefreshEnergy     79625400165                       # Energy for self refresh per rank (pJ)
system.mem_ctrls1_0.totalEnergy          864854352465                       # Total energy per rank (pJ)
system.mem_ctrls1_0.averagePower           503.290128                       # Core power per rank (mW)
system.mem_ctrls1_0.totalIdleTime        1549227745795                       # Total Idle time Per DRAM Rank
system.mem_ctrls1_0.memoryStateTime::IDLE   9960553586                       # Time in different power states
system.mem_ctrls1_0.memoryStateTime::REF  57389890000                       # Time in different power states
system.mem_ctrls1_0.memoryStateTime::SREF 253112589075                       # Time in different power states
system.mem_ctrls1_0.memoryStateTime::PRE_PDN 486010962833                       # Time in different power states
system.mem_ctrls1_0.memoryStateTime::ACT 101822233281                       # Time in different power states
system.mem_ctrls1_0.memoryStateTime::ACT_PDN 810104931610                       # Time in different power states
system.mem_ctrls1_1.actEnergy              6978214740                       # Energy for activate commands per rank (pJ)
system.mem_ctrls1_1.preEnergy              3708997710                       # Energy for precharge commands per rank (pJ)
system.mem_ctrls1_1.readEnergy             5731413660                       # Energy for read commands per rank (pJ)
system.mem_ctrls1_1.writeEnergy            1418806440                       # Energy for write commands per rank (pJ)
system.mem_ctrls1_1.refreshEnergy        137481445920.000031                       # Energy for refresh commands per rank (pJ)
system.mem_ctrls1_1.actBackEnergy         67559719680                       # Energy for active background per rank (pJ)
system.mem_ctrls1_1.preBackEnergy          6749451840                       # Energy for precharge background per rank (pJ)
system.mem_ctrls1_1.actPowerDownEnergy   382243721970                       # Energy for active power-down per rank (pJ)
system.mem_ctrls1_1.prePowerDownEnergy   191606466720                       # Energy for precharge power-down per rank (pJ)
system.mem_ctrls1_1.selfRefreshEnergy     69904828335                       # Energy for self refresh per rank (pJ)
system.mem_ctrls1_1.totalEnergy          873463947765                       # Total energy per rank (pJ)
system.mem_ctrls1_1.averagePower           508.300362                       # Core power per rank (mW)
system.mem_ctrls1_1.totalIdleTime        1552489637906                       # Total Idle time Per DRAM Rank
system.mem_ctrls1_1.memoryStateTime::IDLE   9656029812                       # Time in different power states
system.mem_ctrls1_1.memoryStateTime::REF  58361072000                       # Time in different power states
system.mem_ctrls1_1.memoryStateTime::SREF 215258310063                       # Time in different power states
system.mem_ctrls1_1.memoryStateTime::PRE_PDN 498977244152                       # Time in different power states
system.mem_ctrls1_1.memoryStateTime::ACT  97894184109                       # Time in different power states
system.mem_ctrls1_1.memoryStateTime::ACT_PDN 838254320249                       # Time in different power states
system.pwrStateResidencyTicks::UNDEFINED 35021779084746                       # Cumulative time (in ticks) in various power states
system.cpu.branchPred.lookups                       0                       # Number of BP lookups
system.cpu.branchPred.condPredicted                 0                       # Number of conditional branches predicted
system.cpu.branchPred.condIncorrect                 0                       # Number of conditional branches incorrect
system.cpu.branchPred.BTBLookups                    0                       # Number of BTB lookups
system.cpu.branchPred.BTBHits                       0                       # Number of BTB hits
system.cpu.branchPred.BTBCorrect                    0                       # Number of correct BTB predictions (this stat may not work properly.
system.cpu.branchPred.BTBHitPct                   nan                       # BTB Hit Percentage
system.cpu.branchPred.usedRAS                       0                       # Number of times the RAS was used to get a target.
system.cpu.branchPred.RASInCorrect                  0                       # Number of incorrect RAS predictions.
system.cpu.branchPred.indirectLookups               0                       # Number of indirect predictor lookups.
system.cpu.branchPred.indirectHits                  0                       # Number of indirect target hits.
system.cpu.branchPred.indirectMisses                0                       # Number of indirect misses.
system.cpu.branchPredindirectMispredicted            0                       # Number of mispredicted indirect branches.
system.cpu_voltage_domain.voltage                   1                       # Voltage in Volts
system.cpu_clk_domain.clock                       333                       # Clock period in ticks
system.cpu.dtb.fetch_hits                           0                       # ITB hits
system.cpu.dtb.fetch_misses                         0                       # ITB misses
system.cpu.dtb.fetch_acv                            0                       # ITB acv
system.cpu.dtb.fetch_accesses                       0                       # ITB accesses
system.cpu.dtb.read_hits                           16                       # DTB read hits
system.cpu.dtb.read_misses                          0                       # DTB read misses
system.cpu.dtb.read_acv                             0                       # DTB read access violations
system.cpu.dtb.read_accesses                       16                       # DTB read accesses
system.cpu.dtb.write_hits                           1                       # DTB write hits
system.cpu.dtb.write_misses                         0                       # DTB write misses
system.cpu.dtb.write_acv                            0                       # DTB write access violations
system.cpu.dtb.write_accesses                       1                       # DTB write accesses
system.cpu.dtb.data_hits                           17                       # DTB hits
system.cpu.dtb.data_misses                          0                       # DTB misses
system.cpu.dtb.data_acv                             0                       # DTB access violations
system.cpu.dtb.data_accesses                       17                       # DTB accesses
system.cpu.itb.fetch_hits                           4                       # ITB hits
system.cpu.itb.fetch_misses                         0                       # ITB misses
system.cpu.itb.fetch_acv                            0                       # ITB acv
system.cpu.itb.fetch_accesses                       4                       # ITB accesses
system.cpu.itb.read_hits                            0                       # DTB read hits
system.cpu.itb.read_misses                          0                       # DTB read misses
system.cpu.itb.read_acv                             0                       # DTB read access violations
system.cpu.itb.read_accesses                        0                       # DTB read accesses
system.cpu.itb.write_hits                           0                       # DTB write hits
system.cpu.itb.write_misses                         0                       # DTB write misses
system.cpu.itb.write_acv                            0                       # DTB write access violations
system.cpu.itb.write_accesses                       0                       # DTB write accesses
system.cpu.itb.data_hits                            0                       # DTB hits
system.cpu.itb.data_misses                          0                       # DTB misses
system.cpu.itb.data_acv                             0                       # DTB access violations
system.cpu.itb.data_accesses                        0                       # DTB accesses
system.cpu.workload.num_syscalls                    0                       # Number of system calls
system.cpu.pwrStateResidencyTicks::ON    1718401160385                       # Cumulative time (in ticks) in various power states
system.cpu.numCycles                             1404                       # number of cpu cycles simulated
system.cpu.numWorkItemsStarted                      0                       # number of work items this cpu started
system.cpu.numWorkItemsCompleted                    0                       # number of work items this cpu completed
system.cpu.fetch.icacheStallCycles                 65                       # Number of cycles fetch is stalled on an Icache miss
system.cpu.fetch.Insts                             17                       # Number of instructions fetch has processed
system.cpu.fetch.Cycles                             3                       # Number of cycles fetch has run and was not squashing or blocked
system.cpu.fetch.SquashCycles                       3                       # Number of cycles fetch has spent squashing
system.cpu.fetch.PendingDrainCycles                 6                       # Number of cycles fetch has spent waiting on pipes to drain
system.cpu.fetch.CacheLines                         4                       # Number of cache lines fetched
system.cpu.fetch.IcacheSquashes                     2                       # Number of outstanding Icache misses that were squashed
system.cpu.fetch.rateDist::samples                 75                       # Number of instructions fetched each cycle (Total)
system.cpu.fetch.rateDist::mean              0.226667                       # Number of instructions fetched each cycle (Total)
system.cpu.fetch.rateDist::stdev             1.300450                       # Number of instructions fetched each cycle (Total)
system.cpu.fetch.rateDist::underflows               0      0.00%      0.00% # Number of instructions fetched each cycle (Total)
system.cpu.fetch.rateDist::0                       72     96.00%     96.00% # Number of instructions fetched each cycle (Total)
system.cpu.fetch.rateDist::1                        1      1.33%     97.33% # Number of instructions fetched each cycle (Total)
system.cpu.fetch.rateDist::2                        0      0.00%     97.33% # Number of instructions fetched each cycle (Total)
system.cpu.fetch.rateDist::3                        0      0.00%     97.33% # Number of instructions fetched each cycle (Total)
system.cpu.fetch.rateDist::4                        0      0.00%     97.33% # Number of instructions fetched each cycle (Total)
system.cpu.fetch.rateDist::5                        0      0.00%     97.33% # Number of instructions fetched each cycle (Total)
system.cpu.fetch.rateDist::6                        0      0.00%     97.33% # Number of instructions fetched each cycle (Total)
system.cpu.fetch.rateDist::7                        0      0.00%     97.33% # Number of instructions fetched each cycle (Total)
system.cpu.fetch.rateDist::8                        2      2.67%    100.00% # Number of instructions fetched each cycle (Total)
system.cpu.fetch.rateDist::overflows                0      0.00%    100.00% # Number of instructions fetched each cycle (Total)
system.cpu.fetch.rateDist::min_value                0                       # Number of instructions fetched each cycle (Total)
system.cpu.fetch.rateDist::max_value                8                       # Number of instructions fetched each cycle (Total)
[...]
system.switch_cpus_1.iq.rate                 1.160582                       # Inst issue rate
system.switch_cpus_1.iq.fu_busy_cnt          15069159                       # FU busy when requested
system.switch_cpus_1.iq.fu_busy_rate         0.073225                       # FU busy rate (busy events/executed inst)
system.switch_cpus_1.iq.int_inst_queue_reads    237736718                       # Number of integer instruction queue reads
system.switch_cpus_1.iq.int_inst_queue_writes     28242608                       # Number of integer instruction queue writes
system.switch_cpus_1.iq.int_inst_queue_wakeup_accesses     27843104                       # Number of integer instruction queue wakeup accesses
system.switch_cpus_1.iq.fp_inst_queue_reads    366272148                       # Number of floating instruction queue reads
system.switch_cpus_1.iq.fp_inst_queue_writes    173990160                       # Number of floating instruction queue writes
system.switch_cpus_1.iq.fp_inst_queue_wakeup_accesses    172770138                       # Number of floating instruction queue wakeup accesses
system.switch_cpus_1.iq.int_alu_accesses     31682762                       # Number of integer alu accesses
system.switch_cpus_1.iq.fp_alu_accesses     189179060                       # Number of floating point alu accesses
system.switch_cpus_1.iew.lsq.thread0.forwLoads      9194297                       # Number of loads that had data forwarded from stores
system.switch_cpus_1.iew.lsq.thread0.invAddrLoads            0                       # Number of loads ignored due to an invalid address
system.switch_cpus_1.iew.lsq.thread0.squashedLoads       415221                       # Number of loads squashed
system.switch_cpus_1.iew.lsq.thread0.ignoredResponses          360                       # Number of memory responses ignored because the instruction is squashed
system.switch_cpus_1.iew.lsq.thread0.memOrderViolation        20795                       # Number of memory ordering violations
system.switch_cpus_1.iew.lsq.thread0.squashedStores       221799                       # Number of stores squashed
system.switch_cpus_1.iew.lsq.thread0.invAddrSwpfs            0                       # Number of software prefetches ignored due to an invalid address
system.switch_cpus_1.iew.lsq.thread0.blockedLoads            0                       # Number of blocked loads due to partial load-store forwarding
system.switch_cpus_1.iew.lsq.thread0.rescheduledLoads            0                       # Number of loads that were rescheduled
system.switch_cpus_1.iew.lsq.thread0.cacheBlocked      5269756                       # Number of times an access to memory failed due to the cache being blocked
system.switch_cpus_1.iew.iewIdleCycles              0                       # Number of cycles IEW is idle
system.switch_cpus_1.iew.iewSquashCycles        25122                       # Number of cycles IEW is squashing
system.switch_cpus_1.iew.iewBlockCycles      21851031                       # Number of cycles IEW is blocking
system.switch_cpus_1.iew.iewUnblockCycles     34558630                       # Number of cycles IEW is unblocking
system.switch_cpus_1.iew.iewDispatchedInsts    201106067                       # Number of instructions dispatched to IQ
system.switch_cpus_1.iew.iewDispSquashedInsts         2082                       # Number of squashed instructions skipped by dispatch
system.switch_cpus_1.iew.iewDispLoadInsts     82549140                       # Number of dispatched load instructions
system.switch_cpus_1.iew.iewDispStoreInsts     38176555                       # Number of dispatched store instructions
system.switch_cpus_1.iew.iewDispNonSpecInsts            0                       # Number of dispatched non-speculative instructions
system.switch_cpus_1.iew.iewIQFullEvents        18615                       # Number of times the IQ has become full, causing a stall
system.switch_cpus_1.iew.iewLSQFullEvents     34467748                       # Number of times the LSQ has become full, causing a stall
system.switch_cpus_1.iew.memOrderViolationEvents        20795                       # Number of memory order violations
system.switch_cpus_1.iew.predictedTakenIncorrect         1397                       # Number of branches that were predicted taken incorrectly
system.switch_cpus_1.iew.predictedNotTakenIncorrect           68                       # Number of branches that were predicted not taken incorrectly
system.switch_cpus_1.iew.branchMispredicts         1465                       # Number of branch mispredicts detected at execute
system.switch_cpus_1.iew.iewExecutedInsts    205728842                       # Number of executed instructions
system.switch_cpus_1.iew.iewExecLoadInsts     87459480                       # Number of load instructions executed
system.switch_cpus_1.iew.iewExecSquashedInsts        63813                       # Number of squashed instructions skipped in execute
system.switch_cpus_1.iew.exec_swp                   0                       # number of swp insts executed
system.switch_cpus_1.iew.exec_nop                  27                       # number of nop insts executed
system.switch_cpus_1.iew.exec_refs          125510428                       # number of memory reference insts executed
system.switch_cpus_1.iew.exec_branches         171874                       # Number of branches executed
system.switch_cpus_1.iew.exec_stores         38050948                       # Number of stores executed
system.switch_cpus_1.iew.exec_rate           1.160222                       # Inst execution rate
system.switch_cpus_1.iew.wb_sent            200670045                       # cumulative count of insts sent to commit
system.switch_cpus_1.iew.wb_count           200613242                       # cumulative count of insts written-back
system.switch_cpus_1.iew.wb_producers       131398182                       # num instructions producing a value
system.switch_cpus_1.iew.wb_consumers       136790585                       # num instructions consuming a value
system.switch_cpus_1.iew.wb_rate             1.131372                       # insts written-back per cycle
system.switch_cpus_1.iew.wb_fanout           0.960579                       # average fanout of values written-back
system.switch_cpus_1.commit.commitSquashedInsts      1063206                       # The number of squashed insts skipped by commit
system.switch_cpus_1.commit.branchMispredicts         1459                       # The number of times a branch was mispredicted
system.switch_cpus_1.commit.committed_per_cycle::samples    177171368                       # Number of insts commited each cycle
system.switch_cpus_1.commit.committed_per_cycle::mean     1.128851                       # Number of insts commited each cycle
system.switch_cpus_1.commit.committed_per_cycle::stdev     2.560354                       # Number of insts commited each cycle
system.switch_cpus_1.commit.committed_per_cycle::underflows            0      0.00%      0.00% # Number of insts commited each cycle
system.switch_cpus_1.commit.committed_per_cycle::0    142743408     80.57%     80.57% # Number of insts commited each cycle
system.switch_cpus_1.commit.committed_per_cycle::1      2858594      1.61%     82.18% # Number of insts commited each cycle
system.switch_cpus_1.commit.committed_per_cycle::2      3119725      1.76%     83.94% # Number of insts commited each cycle
system.switch_cpus_1.commit.committed_per_cycle::3      2381402      1.34%     85.29% # Number of insts commited each cycle
system.switch_cpus_1.commit.committed_per_cycle::4      2950519      1.67%     86.95% # Number of insts commited each cycle
system.switch_cpus_1.commit.committed_per_cycle::5      2465841      1.39%     88.34% # Number of insts commited each cycle
system.switch_cpus_1.commit.committed_per_cycle::6      1842260      1.04%     89.38% # Number of insts commited each cycle
system.switch_cpus_1.commit.committed_per_cycle::7      1904019      1.07%     90.46% # Number of insts commited each cycle
system.switch_cpus_1.commit.committed_per_cycle::8     16905600      9.54%    100.00% # Number of insts commited each cycle
system.switch_cpus_1.commit.committed_per_cycle::overflows            0      0.00%    100.00% # Number of insts commited each cycle
system.switch_cpus_1.commit.committed_per_cycle::min_value            0                       # Number of insts commited each cycle
system.switch_cpus_1.commit.committed_per_cycle::max_value            8                       # Number of insts commited each cycle
system.switch_cpus_1.commit.committed_per_cycle::total    177171368                       # Number of insts commited each cycle
system.switch_cpus_1.commit.committedInsts    200000024                       # Number of instructions committed
system.switch_cpus_1.commit.committedOps    200000024                       # Number of ops (including micro ops) committed
system.switch_cpus_1.commit.swp_count               0                       # Number of s/w prefetches committed
system.switch_cpus_1.commit.refs            120088640                       # Number of memory references committed
system.switch_cpus_1.commit.loads            82133897                       # Number of loads committed
system.switch_cpus_1.commit.membars                 0                       # Number of memory barriers committed
system.switch_cpus_1.commit.branches           167612                       # Number of branches committed
system.switch_cpus_1.commit.fp_insts        172405126                       # Number of committed floating point instructions.
system.switch_cpus_1.commit.int_insts       135398704                       # Number of committed integer instructions.
system.switch_cpus_1.commit.function_calls            0                       # Number of function calls committed.
system.switch_cpus_1.commit.op_class_0::No_OpClass           18      0.00%      0.00% # Class of committed instruction
system.switch_cpus_1.commit.op_class_0::IntAlu     15310537      7.66%      7.66% # Class of committed instruction
system.switch_cpus_1.commit.op_class_0::IntMult          186      0.00%      7.66% # Class of committed instruction
system.switch_cpus_1.commit.op_class_0::IntDiv            0      0.00%      7.66% # Class of committed instruction
system.switch_cpus_1.commit.op_class_0::FloatAdd     36073856     18.04%     25.69% # Class of committed instruction
system.switch_cpus_1.commit.op_class_0::FloatCmp            0      0.00%     25.69% # Class of committed instruction
system.switch_cpus_1.commit.op_class_0::FloatCvt            0      0.00%     25.69% # Class of committed instruction
system.switch_cpus_1.commit.op_class_0::FloatMult     28449010     14.22%     39.92% # Class of committed instruction
system.switch_cpus_1.commit.op_class_0::FloatMultAcc            0      0.00%     39.92% # Class of committed instruction
system.switch_cpus_1.commit.op_class_0::FloatDiv        77777      0.04%     39.96% # Class of committed instruction
system.switch_cpus_1.commit.op_class_0::FloatMisc            0      0.00%     39.96% # Class of committed instruction
system.switch_cpus_1.commit.op_class_0::FloatSqrt            0      0.00%     39.96% # Class of committed instruction
system.switch_cpus_1.commit.op_class_0::SimdAdd            0      0.00%     39.96% # Class of committed instruction
system.switch_cpus_1.commit.op_class_0::SimdAddAcc            0      0.00%     39.96% # Class of committed instruction
system.switch_cpus_1.commit.op_class_0::SimdAlu            0      0.00%     39.96% # Class of committed instruction
system.switch_cpus_1.commit.op_class_0::SimdCmp            0      0.00%     39.96% # Class of committed instruction
system.switch_cpus_1.commit.op_class_0::SimdCvt            0      0.00%     39.96% # Class of committed instruction
system.switch_cpus_1.commit.op_class_0::SimdMisc            0      0.00%     39.96% # Class of committed instruction
system.switch_cpus_1.commit.op_class_0::SimdMult            0      0.00%     39.96% # Class of committed instruction
system.switch_cpus_1.commit.op_class_0::SimdMultAcc            0      0.00%     39.96% # Class of committed instruction
system.switch_cpus_1.commit.op_class_0::SimdShift            0      0.00%     39.96% # Class of committed instruction
system.switch_cpus_1.commit.op_class_0::SimdShiftAcc            0      0.00%     39.96% # Class of committed instruction
system.switch_cpus_1.commit.op_class_0::SimdSqrt            0      0.00%     39.96% # Class of committed instruction
system.switch_cpus_1.commit.op_class_0::SimdFloatAdd            0      0.00%     39.96% # Class of committed instruction
system.switch_cpus_1.commit.op_class_0::SimdFloatAlu            0      0.00%     39.96% # Class of committed instruction
system.switch_cpus_1.commit.op_class_0::SimdFloatCmp            0      0.00%     39.96% # Class of committed instruction
system.switch_cpus_1.commit.op_class_0::SimdFloatCvt            0      0.00%     39.96% # Class of committed instruction
system.switch_cpus_1.commit.op_class_0::SimdFloatDiv            0      0.00%     39.96% # Class of committed instruction
system.switch_cpus_1.commit.op_class_0::SimdFloatMisc            0      0.00%     39.96% # Class of committed instruction
system.switch_cpus_1.commit.op_class_0::SimdFloatMult            0      0.00%     39.96% # Class of committed instruction
system.switch_cpus_1.commit.op_class_0::SimdFloatMultAcc            0      0.00%     39.96% # Class of committed instruction
system.switch_cpus_1.commit.op_class_0::SimdFloatSqrt            0      0.00%     39.96% # Class of committed instruction
system.switch_cpus_1.commit.op_class_0::MemRead      8202704      4.10%     44.06% # Class of committed instruction
system.switch_cpus_1.commit.op_class_0::MemWrite      4081453      2.04%     46.10% # Class of committed instruction
system.switch_cpus_1.commit.op_class_0::FloatMemRead     73931193     36.97%     83.06% # Class of committed instruction
system.switch_cpus_1.commit.op_class_0::FloatMemWrite     33873290     16.94%    100.00% # Class of committed instruction
system.switch_cpus_1.commit.op_class_0::IprAccess            0      0.00%    100.00% # Class of committed instruction
system.switch_cpus_1.commit.op_class_0::InstPrefetch            0      0.00%    100.00% # Class of committed instruction
system.switch_cpus_1.commit.op_class_0::total    200000024                       # Class of committed instruction
system.switch_cpus_1.commit.bw_lim_events     16905600                       # number cycles where commit BW limit reached
system.switch_cpus_1.rob.rob_reads          361250998                       # The number of ROB reads
system.switch_cpus_1.rob.rob_writes         402274148                       # The number of ROB writes
system.switch_cpus_1.timesIdled                     5                       # Number of times that the entire CPU went into an idle state and unscheduled itself
system.switch_cpus_1.idleCycles                   609                       # Total number of cycles that the CPU has spent unscheduled due to idling
system.switch_cpus_1.committedInsts         200000006                       # Number of Instructions Simulated
system.switch_cpus_1.committedOps           200000006                       # Number of Ops (including micro ops) Simulated
system.switch_cpus_1.cpi                     0.886593                       # CPI: Cycles Per Instruction
system.switch_cpus_1.cpi_total               0.886593                       # CPI: Total CPI of All Threads
system.switch_cpus_1.ipc                     1.127914                       # IPC: Instructions Per Cycle
system.switch_cpus_1.ipc_total               1.127914                       # IPC: Total IPC of All Threads
system.switch_cpus_1.int_regfile_reads      145551988                       # number of integer regfile reads
system.switch_cpus_1.int_regfile_writes      23578787                       # number of integer regfile writes
system.switch_cpus_1.fp_regfile_reads       163401690                       # number of floating regfile reads
system.switch_cpus_1.fp_regfile_writes      138858007                       # number of floating regfile writes
system.tol3bus.snoop_filter.tot_requests      7960253                       # Total number of requests made to the snoop filter.
system.tol3bus.snoop_filter.hit_single_requests      3978166                       # Number of requests hitting in the snoop filter with a single holder of the requested data.
system.tol3bus.snoop_filter.hit_multi_requests            0                       # Number of requests hitting in the snoop filter with multiple (>1) holders of the requested data.
system.tol3bus.snoop_filter.tot_snoops         167520                       # Total number of snoops made to the snoop filter.
system.tol3bus.snoop_filter.hit_single_snoops       167520                       # Number of snoops hitting in the snoop filter with a single holder of the requested data.
system.tol3bus.snoop_filter.hit_multi_snoops            0                       # Number of snoops hitting in the snoop filter with multiple (>1) holders of the requested data.
system.tol3bus.pwrStateResidencyTicks::UNDEFINED 35021779084746                       # Cumulative time (in ticks) in various power states
system.tol3bus.trans_dist::ReadResp           2827247                       # Transaction distribution
system.tol3bus.trans_dist::WritebackDirty      2579655                       # Transaction distribution
system.tol3bus.trans_dist::CleanEvict         4577340                       # Transaction distribution
system.tol3bus.trans_dist::ReadExReq          1154840                       # Transaction distribution
system.tol3bus.trans_dist::ReadExResp         1154840                       # Transaction distribution
system.tol3bus.trans_dist::ReadSharedReq      2827247                       # Transaction distribution
system.tol3bus.pkt_count_system.cpu.l2.mem_side::system.l3.cpu_side     11942340                       # Packet count per connected master and slave (bytes)
system.tol3bus.pkt_size_system.cpu.l2.mem_side::system.l3.cpu_side    349967552                       # Cumulative packet size per connected master and slave (bytes)
system.tol3bus.snoops                         3178829                       # Total snoops (count)
system.tol3bus.snoopTraffic                  69983936                       # Total snoop traffic (bytes)
system.tol3bus.snoop_fanout::samples          7160916                       # Request fanout histogram
system.tol3bus.snoop_fanout::mean            0.023394                       # Request fanout histogram
system.tol3bus.snoop_fanout::stdev           0.151150                       # Request fanout histogram
system.tol3bus.snoop_fanout::underflows             0      0.00%      0.00% # Request fanout histogram
system.tol3bus.snoop_fanout::0                6993396     97.66%     97.66% # Request fanout histogram
system.tol3bus.snoop_fanout::1                 167520      2.34%    100.00% # Request fanout histogram
system.tol3bus.snoop_fanout::overflows              0      0.00%    100.00% # Request fanout histogram
system.tol3bus.snoop_fanout::min_value              0                       # Request fanout histogram
system.tol3bus.snoop_fanout::max_value              1                       # Request fanout histogram
system.tol3bus.snoop_fanout::total            7160916                       # Request fanout histogram
system.tol3bus.reqLayer0.occupancy         3145654197                       # Layer occupancy (ticks)
system.tol3bus.reqLayer0.utilization              0.2                       # Layer utilization (%)
system.tol3bus.respLayer0.occupancy        2652069942                       # Layer occupancy (ticks)
system.tol3bus.respLayer0.utilization             0.2                       # Layer utilization (%)

---------- End Simulation Statistics   ----------
