
---------- Begin Simulation Statistics ----------
sim_seconds                                  1.257460                       # Number of seconds simulated
sim_ticks                                1257459992156                       # Number of ticks simulated
final_tick                               191308769907156                       # Number of ticks from beginning of simulation (restored from checkpoints and never reset)
sim_freq                                 1000000000000                       # Frequency of simulated ticks
host_inst_rate                                 397738                       # Simulator instruction rate (inst/s)
host_op_rate                                   397738                       # Simulator op (including micro ops) rate (op/s)
host_tick_rate                              416782777                       # Simulator tick rate (ticks/s)
host_mem_usage                                2538908                       # Number of bytes of host memory used
host_seconds                                  3017.06                       # Real time elapsed on the host
sim_insts                                  1200000007                       # Number of instructions simulated
sim_ops                                    1200000007                       # Number of ops (including micro ops) simulated
system.voltage_domain.voltage                       1                       # Voltage in Volts
system.clk_domain.clock                          1000                       # Clock period in ticks
system.mem_ctrls0.pwrStateResidencyTicks::UNDEFINED 191308769907156                       # Cumulative time (in ticks) in various power states
system.mem_ctrls0.bytes_read::cpu.inst            192                       # Number of bytes read from this memory
system.mem_ctrls0.bytes_read::cpu.data            192                       # Number of bytes read from this memory
system.mem_ctrls0.bytes_read::switch_cpus.inst        12992                       # Number of bytes read from this memory
system.mem_ctrls0.bytes_read::switch_cpus.data     21548672                       # Number of bytes read from this memory
system.mem_ctrls0.bytes_read::switch_cpus_1.inst          320                       # Number of bytes read from this memory
system.mem_ctrls0.bytes_read::switch_cpus_1.data      4862272                       # Number of bytes read from this memory
system.mem_ctrls0.bytes_read::total          26424640                       # Number of bytes read from this memory
system.mem_ctrls0.bytes_inst_read::cpu.inst          192                       # Number of instructions bytes read from this memory
system.mem_ctrls0.bytes_inst_read::switch_cpus.inst        12992                       # Number of instructions bytes read from this memory
system.mem_ctrls0.bytes_inst_read::switch_cpus_1.inst          320                       # Number of instructions bytes read from this memory
system.mem_ctrls0.bytes_inst_read::total        13504                       # Number of instructions bytes read from this memory
system.mem_ctrls0.bytes_written::writebacks     18113856                       # Number of bytes written to this memory
system.mem_ctrls0.bytes_written::total       18113856                       # Number of bytes written to this memory
system.mem_ctrls0.num_reads::cpu.inst               3                       # Number of read requests responded to by this memory
system.mem_ctrls0.num_reads::cpu.data               3                       # Number of read requests responded to by this memory
system.mem_ctrls0.num_reads::switch_cpus.inst          203                       # Number of read requests responded to by this memory
system.mem_ctrls0.num_reads::switch_cpus.data       336698                       # Number of read requests responded to by this memory
system.mem_ctrls0.num_reads::switch_cpus_1.inst            5                       # Number of read requests responded to by this memory
system.mem_ctrls0.num_reads::switch_cpus_1.data        75973                       # Number of read requests responded to by this memory
system.mem_ctrls0.num_reads::total             412885                       # Number of read requests responded to by this memory
system.mem_ctrls0.num_writes::writebacks       283029                       # Number of write requests responded to by this memory
system.mem_ctrls0.num_writes::total            283029                       # Number of write requests responded to by this memory
system.mem_ctrls0.bw_read::cpu.inst               153                       # Total read bandwidth from this memory (bytes/s)
system.mem_ctrls0.bw_read::cpu.data               153                       # Total read bandwidth from this memory (bytes/s)
system.mem_ctrls0.bw_read::switch_cpus.inst        10332                       # Total read bandwidth from this memory (bytes/s)
system.mem_ctrls0.bw_read::switch_cpus.data     17136666                       # Total read bandwidth from this memory (bytes/s)
system.mem_ctrls0.bw_read::switch_cpus_1.inst          254                       # Total read bandwidth from this memory (bytes/s)
system.mem_ctrls0.bw_read::switch_cpus_1.data      3866741                       # Total read bandwidth from this memory (bytes/s)
system.mem_ctrls0.bw_read::total             21014299                       # Total read bandwidth from this memory (bytes/s)
system.mem_ctrls0.bw_inst_read::cpu.inst          153                       # Instruction read bandwidth from this memory (bytes/s)
system.mem_ctrls0.bw_inst_read::switch_cpus.inst        10332                       # Instruction read bandwidth from this memory (bytes/s)
system.mem_ctrls0.bw_inst_read::switch_cpus_1.inst          254                       # Instruction read bandwidth from this memory (bytes/s)
system.mem_ctrls0.bw_inst_read::total           10739                       # Instruction read bandwidth from this memory (bytes/s)
system.mem_ctrls0.bw_write::writebacks       14405115                       # Write bandwidth from this memory (bytes/s)
system.mem_ctrls0.bw_write::total            14405115                       # Write bandwidth from this memory (bytes/s)
system.mem_ctrls0.bw_total::writebacks       14405115                       # Total bandwidth to/from this memory (bytes/s)
system.mem_ctrls0.bw_total::cpu.inst              153                       # Total bandwidth to/from this memory (bytes/s)
system.mem_ctrls0.bw_total::cpu.data              153                       # Total bandwidth to/from this memory (bytes/s)
system.mem_ctrls0.bw_total::switch_cpus.inst        10332                       # Total bandwidth to/from this memory (bytes/s)
system.mem_ctrls0.bw_total::switch_cpus.data     17136666                       # Total bandwidth to/from this memory (bytes/s)
system.mem_ctrls0.bw_total::switch_cpus_1.inst          254                       # Total bandwidth to/from this memory (bytes/s)
system.mem_ctrls0.bw_total::switch_cpus_1.data      3866741                       # Total bandwidth to/from this memory (bytes/s)
system.mem_ctrls0.bw_total::total            35419414                       # Total bandwidth to/from this memory (bytes/s)
system.mem_ctrls0.readReqs                     412885                       # Number of read requests accepted
system.mem_ctrls0.writeReqs                    283029                       # Number of write requests accepted
system.mem_ctrls0.readBursts                   412885                       # Number of DRAM read bursts, including those serviced by the write queue
system.mem_ctrls0.writeBursts                  283029                       # Number of DRAM write bursts, including those merged in the write queue
system.mem_ctrls0.bytesReadDRAM              26353280                       # Total number of bytes read from DRAM
system.mem_ctrls0.bytesReadWrQ                  71360                       # Total number of bytes read from write queue
system.mem_ctrls0.bytesWritten               18111424                       # Total number of bytes written to DRAM
system.mem_ctrls0.bytesReadSys               26424640                       # Total read bytes from the system interface side
system.mem_ctrls0.bytesWrittenSys            18113856                       # Total written bytes from the system interface side
system.mem_ctrls0.servicedByWrQ                  1115                       # Number of DRAM read bursts serviced by the write queue
system.mem_ctrls0.mergedWrBursts                    6                       # Number of DRAM write bursts merged with an existing one
system.mem_ctrls0.neitherReadNorWriteReqs            0                       # Number of requests that are neither read nor write
system.mem_ctrls0.perBankRdBursts::0            26932                       # Per bank write bursts
system.mem_ctrls0.perBankRdBursts::1            26439                       # Per bank write bursts
system.mem_ctrls0.perBankRdBursts::2            27160                       # Per bank write bursts
system.mem_ctrls0.perBankRdBursts::3            26236                       # Per bank write bursts
system.mem_ctrls0.perBankRdBursts::4            23820                       # Per bank write bursts
system.mem_ctrls0.perBankRdBursts::5            25049                       # Per bank write bursts
system.mem_ctrls0.perBankRdBursts::6            25579                       # Per bank write bursts
system.mem_ctrls0.perBankRdBursts::7            26405                       # Per bank write bursts
system.mem_ctrls0.perBankRdBursts::8            26795                       # Per bank write bursts
system.mem_ctrls0.perBankRdBursts::9            25447                       # Per bank write bursts
system.mem_ctrls0.perBankRdBursts::10           25701                       # Per bank write bursts
system.mem_ctrls0.perBankRdBursts::11           25132                       # Per bank write bursts
system.mem_ctrls0.perBankRdBursts::12           23955                       # Per bank write bursts
system.mem_ctrls0.perBankRdBursts::13           24843                       # Per bank write bursts
system.mem_ctrls0.perBankRdBursts::14           25533                       # Per bank write bursts
system.mem_ctrls0.perBankRdBursts::15           26744                       # Per bank write bursts
system.mem_ctrls0.perBankWrBursts::0            18501                       # Per bank write bursts
system.mem_ctrls0.perBankWrBursts::1            18331                       # Per bank write bursts
system.mem_ctrls0.perBankWrBursts::2            18607                       # Per bank write bursts
system.mem_ctrls0.perBankWrBursts::3            17739                       # Per bank write bursts
system.mem_ctrls0.perBankWrBursts::4            15973                       # Per bank write bursts
system.mem_ctrls0.perBankWrBursts::5            17130                       # Per bank write bursts
system.mem_ctrls0.perBankWrBursts::6            17647                       # Per bank write bursts
system.mem_ctrls0.perBankWrBursts::7            18393                       # Per bank write bursts
system.mem_ctrls0.perBankWrBursts::8            18449                       # Per bank write bursts
system.mem_ctrls0.perBankWrBursts::9            17630                       # Per bank write bursts
system.mem_ctrls0.perBankWrBursts::10           17542                       # Per bank write bursts
system.mem_ctrls0.perBankWrBursts::11           17337                       # Per bank write bursts
system.mem_ctrls0.perBankWrBursts::12           16571                       # Per bank write bursts
system.mem_ctrls0.perBankWrBursts::13           16932                       # Per bank write bursts
system.mem_ctrls0.perBankWrBursts::14           17526                       # Per bank write bursts
system.mem_ctrls0.perBankWrBursts::15           18683                       # Per bank write bursts
system.mem_ctrls0.numRdRetry                        0                       # Number of times read queue was full causing retry
system.mem_ctrls0.numWrRetry                        0                       # Number of times write queue was full causing retry
system.mem_ctrls0.totGap                 1257354044010                       # Total gap between requests
system.mem_ctrls0.readPktSize::0                    0                       # Read request sizes (log2)
system.mem_ctrls0.readPktSize::1                    0                       # Read request sizes (log2)
system.mem_ctrls0.readPktSize::2                    0                       # Read request sizes (log2)
system.mem_ctrls0.readPktSize::3                    0                       # Read request sizes (log2)
system.mem_ctrls0.readPktSize::4                    0                       # Read request sizes (log2)
system.mem_ctrls0.readPktSize::5                    0                       # Read request sizes (log2)
system.mem_ctrls0.readPktSize::6               412885                       # Read request sizes (log2)
system.mem_ctrls0.writePktSize::0                   0                       # Write request sizes (log2)
system.mem_ctrls0.writePktSize::1                   0                       # Write request sizes (log2)
system.mem_ctrls0.writePktSize::2                   0                       # Write request sizes (log2)
system.mem_ctrls0.writePktSize::3                   0                       # Write request sizes (log2)
system.mem_ctrls0.writePktSize::4                   0                       # Write request sizes (log2)
system.mem_ctrls0.writePktSize::5                   0                       # Write request sizes (log2)
system.mem_ctrls0.writePktSize::6              283029                       # Write request sizes (log2)
system.mem_ctrls0.rdQLenPdf::0                 404635                       # What read queue length does an incoming req see
system.mem_ctrls0.rdQLenPdf::1                   6933                       # What read queue length does an incoming req see
system.mem_ctrls0.rdQLenPdf::2                    188                       # What read queue length does an incoming req see
system.mem_ctrls0.rdQLenPdf::3                     13                       # What read queue length does an incoming req see
system.mem_ctrls0.rdQLenPdf::4                      1                       # What read queue length does an incoming req see
system.mem_ctrls0.rdQLenPdf::5                      0                       # What read queue length does an incoming req see
system.mem_ctrls0.rdQLenPdf::6                      0                       # What read queue length does an incoming req see
system.mem_ctrls0.rdQLenPdf::7                      0                       # What read queue length does an incoming req see
system.mem_ctrls0.rdQLenPdf::8                      0                       # What read queue length does an incoming req see
system.mem_ctrls0.rdQLenPdf::9                      0                       # What read queue length does an incoming req see
system.mem_ctrls0.rdQLenPdf::10                     0                       # What read queue length does an incoming req see
system.mem_ctrls0.rdQLenPdf::11                     0                       # What read queue length does an incoming req see
system.mem_ctrls0.rdQLenPdf::12                     0                       # What read queue length does an incoming req see
system.mem_ctrls0.rdQLenPdf::13                     0                       # What read queue length does an incoming req see
system.mem_ctrls0.rdQLenPdf::14                     0                       # What read queue length does an incoming req see
system.mem_ctrls0.rdQLenPdf::15                     0                       # What read queue length does an incoming req see
system.mem_ctrls0.rdQLenPdf::16                     0                       # What read queue length does an incoming req see
system.mem_ctrls0.rdQLenPdf::17                     0                       # What read queue length does an incoming req see
system.mem_ctrls0.rdQLenPdf::18                     0                       # What read queue length does an incoming req see
system.mem_ctrls0.rdQLenPdf::19                     0                       # What read queue length does an incoming req see
system.mem_ctrls0.rdQLenPdf::20                     0                       # What read queue length does an incoming req see
system.mem_ctrls0.rdQLenPdf::21                     0                       # What read queue length does an incoming req see
system.mem_ctrls0.rdQLenPdf::22                     0                       # What read queue length does an incoming req see
system.mem_ctrls0.rdQLenPdf::23                     0                       # What read queue length does an incoming req see
system.mem_ctrls0.rdQLenPdf::24                     0                       # What read queue length does an incoming req see
system.mem_ctrls0.rdQLenPdf::25                     0                       # What read queue length does an incoming req see
system.mem_ctrls0.rdQLenPdf::26                     0                       # What read queue length does an incoming req see
system.mem_ctrls0.rdQLenPdf::27                     0                       # What read queue length does an incoming req see
system.mem_ctrls0.rdQLenPdf::28                     0                       # What read queue length does an incoming req see
system.mem_ctrls0.rdQLenPdf::29                     0                       # What read queue length does an incoming req see
system.mem_ctrls0.rdQLenPdf::30                     0                       # What read queue length does an incoming req see
system.mem_ctrls0.rdQLenPdf::31                     0                       # What read queue length does an incoming req see
system.mem_ctrls0.wrQLenPdf::0                      2                       # What write queue length does an incoming req see
system.mem_ctrls0.wrQLenPdf::1                      2                       # What write queue length does an incoming req see
system.mem_ctrls0.wrQLenPdf::2                      2                       # What write queue length does an incoming req see
system.mem_ctrls0.wrQLenPdf::3                      2                       # What write queue length does an incoming req see
system.mem_ctrls0.wrQLenPdf::4                      2                       # What write queue length does an incoming req see
system.mem_ctrls0.wrQLenPdf::5                      2                       # What write queue length does an incoming req see
system.mem_ctrls0.wrQLenPdf::6                      2                       # What write queue length does an incoming req see
system.mem_ctrls0.wrQLenPdf::7                      2                       # What write queue length does an incoming req see
system.mem_ctrls0.wrQLenPdf::8                      2                       # What write queue length does an incoming req see
system.mem_ctrls0.wrQLenPdf::9                      2                       # What write queue length does an incoming req see
system.mem_ctrls0.wrQLenPdf::10                     2                       # What write queue length does an incoming req see
system.mem_ctrls0.wrQLenPdf::11                     2                       # What write queue length does an incoming req see
system.mem_ctrls0.wrQLenPdf::12                     2                       # What write queue length does an incoming req see
system.mem_ctrls0.wrQLenPdf::13                     2                       # What write queue length does an incoming req see
system.mem_ctrls0.wrQLenPdf::14                     2                       # What write queue length does an incoming req see
system.mem_ctrls0.wrQLenPdf::15                 12496                       # What write queue length does an incoming req see
system.mem_ctrls0.wrQLenPdf::16                 12770                       # What write queue length does an incoming req see
system.mem_ctrls0.wrQLenPdf::17                 15631                       # What write queue length does an incoming req see
system.mem_ctrls0.wrQLenPdf::18                 16048                       # What write queue length does an incoming req see
system.mem_ctrls0.wrQLenPdf::19                 16170                       # What write queue length does an incoming req see
system.mem_ctrls0.wrQLenPdf::20                 16144                       # What write queue length does an incoming req see
system.mem_ctrls0.wrQLenPdf::21                 16159                       # What write queue length does an incoming req see
system.mem_ctrls0.wrQLenPdf::22                 16142                       # What write queue length does an incoming req see
system.mem_ctrls0.wrQLenPdf::23                 16202                       # What write queue length does an incoming req see
system.mem_ctrls0.wrQLenPdf::24                 16184                       # What write queue length does an incoming req see
system.mem_ctrls0.wrQLenPdf::25                 16289                       # What write queue length does an incoming req see
system.mem_ctrls0.wrQLenPdf::26                 16171                       # What write queue length does an incoming req see
system.mem_ctrls0.wrQLenPdf::27                 16114                       # What write queue length does an incoming req see
system.mem_ctrls0.wrQLenPdf::28                 16106                       # What write queue length does an incoming req see
system.mem_ctrls0.wrQLenPdf::29                 16127                       # What write queue length does an incoming req see
system.mem_ctrls0.wrQLenPdf::30                 16112                       # What write queue length does an incoming req see
system.mem_ctrls0.wrQLenPdf::31                 16028                       # What write queue length does an incoming req see
system.mem_ctrls0.wrQLenPdf::32                 16016                       # What write queue length does an incoming req see
system.mem_ctrls0.wrQLenPdf::33                    74                       # What write queue length does an incoming req see
system.mem_ctrls0.wrQLenPdf::34                    10                       # What write queue length does an incoming req see
system.mem_ctrls0.wrQLenPdf::35                     0                       # What write queue length does an incoming req see
system.mem_ctrls0.wrQLenPdf::36                     0                       # What write queue length does an incoming req see
system.mem_ctrls0.wrQLenPdf::37                     0                       # What write queue length does an incoming req see
system.mem_ctrls0.wrQLenPdf::38                     0                       # What write queue length does an incoming req see
system.mem_ctrls0.wrQLenPdf::39                     0                       # What write queue length does an incoming req see
system.mem_ctrls0.wrQLenPdf::40                     0                       # What write queue length does an incoming req see
system.mem_ctrls0.wrQLenPdf::41                     0                       # What write queue length does an incoming req see
system.mem_ctrls0.wrQLenPdf::42                     0                       # What write queue length does an incoming req see
system.mem_ctrls0.wrQLenPdf::43                     0                       # What write queue length does an incoming req see
system.mem_ctrls0.wrQLenPdf::44                     0                       # What write queue length does an incoming req see
system.mem_ctrls0.wrQLenPdf::45                     0                       # What write queue length does an incoming req see
system.mem_ctrls0.wrQLenPdf::46                     0                       # What write queue length does an incoming req see
system.mem_ctrls0.wrQLenPdf::47                     0                       # What write queue length does an incoming req see
system.mem_ctrls0.wrQLenPdf::48                     0                       # What write queue length does an incoming req see
system.mem_ctrls0.wrQLenPdf::49                     0                       # What write queue length does an incoming req see
system.mem_ctrls0.wrQLenPdf::50                     0                       # What write queue length does an incoming req see
system.mem_ctrls0.wrQLenPdf::51                     0                       # What write queue length does an incoming req see
system.mem_ctrls0.wrQLenPdf::52                     0                       # What write queue length does an incoming req see
system.mem_ctrls0.wrQLenPdf::53                     0                       # What write queue length does an incoming req see
system.mem_ctrls0.wrQLenPdf::54                     0                       # What write queue length does an incoming req see
system.mem_ctrls0.wrQLenPdf::55                     0                       # What write queue length does an incoming req see
system.mem_ctrls0.wrQLenPdf::56                     0                       # What write queue length does an incoming req see
system.mem_ctrls0.wrQLenPdf::57                     0                       # What write queue length does an incoming req see
system.mem_ctrls0.wrQLenPdf::58                     0                       # What write queue length does an incoming req see
system.mem_ctrls0.wrQLenPdf::59                     0                       # What write queue length does an incoming req see
system.mem_ctrls0.wrQLenPdf::60                     0                       # What write queue length does an incoming req see
system.mem_ctrls0.wrQLenPdf::61                     0                       # What write queue length does an incoming req see
system.mem_ctrls0.wrQLenPdf::62                     0                       # What write queue length does an incoming req see
system.mem_ctrls0.wrQLenPdf::63                     0                       # What write queue length does an incoming req see
system.mem_ctrls0.bytesPerActivate::samples       451520                       # Bytes accessed per row activation
system.mem_ctrls0.bytesPerActivate::mean    98.477817                       # Bytes accessed per row activation
system.mem_ctrls0.bytesPerActivate::gmean    81.358528                       # Bytes accessed per row activation
system.mem_ctrls0.bytesPerActivate::stdev   101.093315                       # Bytes accessed per row activation
system.mem_ctrls0.bytesPerActivate::0-127       348044     77.08%     77.08% # Bytes accessed per row activation
system.mem_ctrls0.bytesPerActivate::128-255        75832     16.79%     93.88% # Bytes accessed per row activation
system.mem_ctrls0.bytesPerActivate::256-383        16065      3.56%     97.44% # Bytes accessed per row activation
system.mem_ctrls0.bytesPerActivate::384-511         5710      1.26%     98.70% # Bytes accessed per row activation
system.mem_ctrls0.bytesPerActivate::512-639         1802      0.40%     99.10% # Bytes accessed per row activation
system.mem_ctrls0.bytesPerActivate::640-767          999      0.22%     99.32% # Bytes accessed per row activation
system.mem_ctrls0.bytesPerActivate::768-895          775      0.17%     99.49% # Bytes accessed per row activation
system.mem_ctrls0.bytesPerActivate::896-1023          553      0.12%     99.61% # Bytes accessed per row activation
system.mem_ctrls0.bytesPerActivate::1024-1151         1740      0.39%    100.00% # Bytes accessed per row activation
system.mem_ctrls0.bytesPerActivate::total       451520                       # Bytes accessed per row activation
system.mem_ctrls0.rdPerTurnAround::samples        16013                       # Reads before turning the bus around for writes
system.mem_ctrls0.rdPerTurnAround::mean     25.709111                       # Reads before turning the bus around for writes
system.mem_ctrls0.rdPerTurnAround::stdev   228.711180                       # Reads before turning the bus around for writes
system.mem_ctrls0.rdPerTurnAround::0-1023        16012     99.99%     99.99% # Reads before turning the bus around for writes
system.mem_ctrls0.rdPerTurnAround::28672-29695            1      0.01%    100.00% # Reads before turning the bus around for writes
system.mem_ctrls0.rdPerTurnAround::total        16013                       # Reads before turning the bus around for writes
system.mem_ctrls0.wrPerTurnAround::samples        16013                       # Writes before turning the bus around for reads
system.mem_ctrls0.wrPerTurnAround::mean     17.672579                       # Writes before turning the bus around for reads
system.mem_ctrls0.wrPerTurnAround::gmean    17.647662                       # Writes before turning the bus around for reads
system.mem_ctrls0.wrPerTurnAround::stdev     0.925137                       # Writes before turning the bus around for reads
system.mem_ctrls0.wrPerTurnAround::16            3300     20.61%     20.61% # Writes before turning the bus around for reads
system.mem_ctrls0.wrPerTurnAround::17             177      1.11%     21.71% # Writes before turning the bus around for reads
system.mem_ctrls0.wrPerTurnAround::18           11206     69.98%     91.69% # Writes before turning the bus around for reads
system.mem_ctrls0.wrPerTurnAround::19            1166      7.28%     98.98% # Writes before turning the bus around for reads
system.mem_ctrls0.wrPerTurnAround::20             132      0.82%     99.80% # Writes before turning the bus around for reads
system.mem_ctrls0.wrPerTurnAround::21              26      0.16%     99.96% # Writes before turning the bus around for reads
system.mem_ctrls0.wrPerTurnAround::22               5      0.03%     99.99% # Writes before turning the bus around for reads
system.mem_ctrls0.wrPerTurnAround::24               1      0.01%    100.00% # Writes before turning the bus around for reads
system.mem_ctrls0.wrPerTurnAround::total        16013                       # Writes before turning the bus around for reads
system.mem_ctrls0.totQLat                 19771810421                       # Total ticks spent queuing
system.mem_ctrls0.totMemAccLat            27492497921                       # Total ticks spent from burst creation until serviced by the DRAM
system.mem_ctrls0.totBusLat                2058850000                       # Total ticks spent in databus transfers
system.mem_ctrls0.avgQLat                    48016.64                       # Average queueing delay per DRAM burst
system.mem_ctrls0.avgBusLat                   5000.00                       # Average bus latency per DRAM burst
system.mem_ctrls0.avgMemAccLat               66766.64                       # Average memory access latency per DRAM burst
system.mem_ctrls0.avgRdBW                       20.96                       # Average DRAM read bandwidth in MiByte/s
system.mem_ctrls0.avgWrBW                       14.40                       # Average achieved write bandwidth in MiByte/s
system.mem_ctrls0.avgRdBWSys                    21.01                       # Average system read bandwidth in MiByte/s
system.mem_ctrls0.avgWrBWSys                    14.41                       # Average system write bandwidth in MiByte/s
system.mem_ctrls0.peakBW                     12800.00                       # Theoretical peak bandwidth in MiByte/s
system.mem_ctrls0.busUtil                        0.28                       # Data bus utilization in percentage
system.mem_ctrls0.busUtilRead                    0.16                       # Data bus utilization in percentage for reads
system.mem_ctrls0.busUtilWrite                   0.11                       # Data bus utilization in percentage for writes
system.mem_ctrls0.avgRdQLen                      1.00                       # Average read queue length when enqueuing
system.mem_ctrls0.avgWrQLen                     23.14                       # Average write queue length when enqueuing
system.mem_ctrls0.readRowHits                  189432                       # Number of row buffer hits during reads
system.mem_ctrls0.writeRowHits                  53809                       # Number of row buffer hits during writes
system.mem_ctrls0.readRowHitRate                46.00                       # Row buffer hit rate for reads
system.mem_ctrls0.writeRowHitRate               19.01                       # Row buffer hit rate for writes
system.mem_ctrls0.avgGap                   1806766.42                       # Average gap between requests
system.mem_ctrls0.pageHitRate                   35.01                       # Row buffer hit rate, read and write combined
system.mem_ctrls0_0.actEnergy              1622929140                       # Energy for activate commands per rank (pJ)
system.mem_ctrls0_0.preEnergy               862607295                       # Energy for precharge commands per rank (pJ)
system.mem_ctrls0_0.readEnergy             1482406800                       # Energy for read commands per rank (pJ)
system.mem_ctrls0_0.writeEnergy             742915620                       # Energy for write commands per rank (pJ)
system.mem_ctrls0_0.refreshEnergy        48126312000.000008                       # Energy for refresh commands per rank (pJ)
system.mem_ctrls0_0.actBackEnergy         27403859790                       # Energy for active background per rank (pJ)
system.mem_ctrls0_0.preBackEnergy          2278529760                       # Energy for precharge background per rank (pJ)
system.mem_ctrls0_0.actPowerDownEnergy   127354642290                       # Energy for active power-down per rank (pJ)
system.mem_ctrls0_0.prePowerDownEnergy    63196271520                       # Energy for precharge power-down per rank (pJ)
system.mem_ctrls0_0.selfRefreshEnergy    187020751095                       # Energy for self refresh per rank (pJ)
system.mem_ctrls0_0.totalEnergy          460108906260                       # Total energy per rank (pJ)
system.mem_ctrls0_0.averagePower           365.903412                       # Core power per rank (mW)
system.mem_ctrls0_0.totalIdleTime        1191298509091                       # Total Idle time Per DRAM Rank
system.mem_ctrls0_0.memoryStateTime::IDLE   3970763338                       # Time in different power states
system.mem_ctrls0_0.memoryStateTime::REF  20442168000                       # Time in different power states
system.mem_ctrls0_0.memoryStateTime::SREF 747530790156                       # Time in different power states
system.mem_ctrls0_0.memoryStateTime::PRE_PDN 164573016457                       # Time in different power states
system.mem_ctrls0_0.memoryStateTime::ACT  41656883112                       # Time in different power states
system.mem_ctrls0_0.memoryStateTime::ACT_PDN 279286371093                       # Time in different power states
system.mem_ctrls0_1.actEnergy              1600923660                       # Energy for activate commands per rank (pJ)
system.mem_ctrls0_1.preEnergy               850911105                       # Energy for precharge commands per rank (pJ)
system.mem_ctrls0_1.readEnergy             1457631000                       # Energy for read commands per rank (pJ)
system.mem_ctrls0_1.writeEnergy             734297400                       # Energy for write commands per rank (pJ)
system.mem_ctrls0_1.refreshEnergy        48659204880.000008                       # Energy for refresh commands per rank (pJ)
system.mem_ctrls0_1.actBackEnergy         27522666030                       # Energy for active background per rank (pJ)
system.mem_ctrls0_1.preBackEnergy          2288138880                       # Energy for precharge background per rank (pJ)
system.mem_ctrls0_1.actPowerDownEnergy   129019403100                       # Energy for active power-down per rank (pJ)
system.mem_ctrls0_1.prePowerDownEnergy    64227160800                       # Energy for precharge power-down per rank (pJ)
system.mem_ctrls0_1.selfRefreshEnergy    185441892255                       # Energy for self refresh per rank (pJ)
system.mem_ctrls0_1.totalEnergy          461819530050                       # Total energy per rank (pJ)
system.mem_ctrls0_1.averagePower           367.263794                       # Core power per rank (mW)
system.mem_ctrls0_1.totalIdleTime        1190856731955                       # Total Idle time Per DRAM Rank
system.mem_ctrls0_1.memoryStateTime::IDLE   3974249930                       # Time in different power states
system.mem_ctrls0_1.memoryStateTime::REF  20667810000                       # Time in different power states
system.mem_ctrls0_1.memoryStateTime::SREF 740910615246                       # Time in different power states
system.mem_ctrls0_1.memoryStateTime::PRE_PDN 167258105843                       # Time in different power states
system.mem_ctrls0_1.memoryStateTime::ACT  41712977166                       # Time in different power states
system.mem_ctrls0_1.memoryStateTime::ACT_PDN 282936233971                       # Time in different power states
system.mem_ctrls1.pwrStateResidencyTicks::UNDEFINED 191308769907156                       # Cumulative time (in ticks) in various power states
system.mem_ctrls1.bytes_read::cpu.inst            128                       # Number of bytes read from this memory
system.mem_ctrls1.bytes_read::cpu.data             64                       # Number of bytes read from this memory
system.mem_ctrls1.bytes_read::switch_cpus.inst        14144                       # Number of bytes read from this memory
system.mem_ctrls1.bytes_read::switch_cpus.data     21540544                       # Number of bytes read from this memory
system.mem_ctrls1.bytes_read::switch_cpus_1.inst          768                       # Number of bytes read from this memory
system.mem_ctrls1.bytes_read::switch_cpus_1.data      4859072                       # Number of bytes read from this memory
system.mem_ctrls1.bytes_read::total          26414720                       # Number of bytes read from this memory
system.mem_ctrls1.bytes_inst_read::cpu.inst          128                       # Number of instructions bytes read from this memory
system.mem_ctrls1.bytes_inst_read::switch_cpus.inst        14144                       # Number of instructions bytes read from this memory
system.mem_ctrls1.bytes_inst_read::switch_cpus_1.inst          768                       # Number of instructions bytes read from this memory
system.mem_ctrls1.bytes_inst_read::total        15040                       # Number of instructions bytes read from this memory
system.mem_ctrls1.bytes_written::writebacks     18105408                       # Number of bytes written to this memory
system.mem_ctrls1.bytes_written::total       18105408                       # Number of bytes written to this memory
system.mem_ctrls1.num_reads::cpu.inst               2                       # Number of read requests responded to by this memory
system.mem_ctrls1.num_reads::cpu.data               1                       # Number of read requests responded to by this memory
system.mem_ctrls1.num_reads::switch_cpus.inst          221                       # Number of read requests responded to by this memory
system.mem_ctrls1.num_reads::switch_cpus.data       336571                       # Number of read requests responded to by this memory
system.mem_ctrls1.num_reads::switch_cpus_1.inst           12                       # Number of read requests responded to by this memory
system.mem_ctrls1.num_reads::switch_cpus_1.data        75923                       # Number of read requests responded to by this memory
system.mem_ctrls1.num_reads::total             412730                       # Number of read requests responded to by this memory
system.mem_ctrls1.num_writes::writebacks       282897                       # Number of write requests responded to by this memory
system.mem_ctrls1.num_writes::total            282897                       # Number of write requests responded to by this memory
system.mem_ctrls1.bw_read::cpu.inst               102                       # Total read bandwidth from this memory (bytes/s)
system.mem_ctrls1.bw_read::cpu.data                51                       # Total read bandwidth from this memory (bytes/s)
system.mem_ctrls1.bw_read::switch_cpus.inst        11248                       # Total read bandwidth from this memory (bytes/s)
system.mem_ctrls1.bw_read::switch_cpus.data     17130202                       # Total read bandwidth from this memory (bytes/s)
system.mem_ctrls1.bw_read::switch_cpus_1.inst          611                       # Total read bandwidth from this memory (bytes/s)
system.mem_ctrls1.bw_read::switch_cpus_1.data      3864196                       # Total read bandwidth from this memory (bytes/s)
system.mem_ctrls1.bw_read::total             21006410                       # Total read bandwidth from this memory (bytes/s)
system.mem_ctrls1.bw_inst_read::cpu.inst          102                       # Instruction read bandwidth from this memory (bytes/s)
system.mem_ctrls1.bw_inst_read::switch_cpus.inst        11248                       # Instruction read bandwidth from this memory (bytes/s)
system.mem_ctrls1.bw_inst_read::switch_cpus_1.inst          611                       # Instruction read bandwidth from this memory (bytes/s)
system.mem_ctrls1.bw_inst_read::total           11961                       # Instruction read bandwidth from this memory (bytes/s)
system.mem_ctrls1.bw_write::writebacks       14398397                       # Write bandwidth from this memory (bytes/s)
system.mem_ctrls1.bw_write::total            14398397                       # Write bandwidth from this memory (bytes/s)
system.mem_ctrls1.bw_total::writebacks       14398397                       # Total bandwidth to/from this memory (bytes/s)
system.mem_ctrls1.bw_total::cpu.inst              102                       # Total bandwidth to/from this memory (bytes/s)
system.mem_ctrls1.bw_total::cpu.data               51                       # Total bandwidth to/from this memory (bytes/s)
system.mem_ctrls1.bw_total::switch_cpus.inst        11248                       # Total bandwidth to/from this memory (bytes/s)
system.mem_ctrls1.bw_total::switch_cpus.data     17130202                       # Total bandwidth to/from this memory (bytes/s)
system.mem_ctrls1.bw_total::switch_cpus_1.inst          611                       # Total bandwidth to/from this memory (bytes/s)
system.mem_ctrls1.bw_total::switch_cpus_1.data      3864196                       # Total bandwidth to/from this memory (bytes/s)
system.mem_ctrls1.bw_total::total            35404807                       # Total bandwidth to/from this memory (bytes/s)
system.mem_ctrls1.readReqs                     412730                       # Number of read requests accepted
system.mem_ctrls1.writeReqs                    282897                       # Number of write requests accepted
system.mem_ctrls1.readBursts                   412730                       # Number of DRAM read bursts, including those serviced by the write queue
system.mem_ctrls1.writeBursts                  282897                       # Number of DRAM write bursts, including those merged in the write queue
system.mem_ctrls1.bytesReadDRAM              26346752                       # Total number of bytes read from DRAM
system.mem_ctrls1.bytesReadWrQ                  67968                       # Total number of bytes read from write queue
system.mem_ctrls1.bytesWritten               18103936                       # Total number of bytes written to DRAM
system.mem_ctrls1.bytesReadSys               26414720                       # Total read bytes from the system interface side
system.mem_ctrls1.bytesWrittenSys            18105408                       # Total written bytes from the system interface side
system.mem_ctrls1.servicedByWrQ                  1062                       # Number of DRAM read bursts serviced by the write queue
system.mem_ctrls1.mergedWrBursts                    2                       # Number of DRAM write bursts merged with an existing one
system.mem_ctrls1.neitherReadNorWriteReqs            0                       # Number of requests that are neither read nor write
system.mem_ctrls1.perBankRdBursts::0            26848                       # Per bank write bursts
system.mem_ctrls1.perBankRdBursts::1            26215                       # Per bank write bursts
system.mem_ctrls1.perBankRdBursts::2            27276                       # Per bank write bursts
system.mem_ctrls1.perBankRdBursts::3            26465                       # Per bank write bursts
system.mem_ctrls1.perBankRdBursts::4            24071                       # Per bank write bursts
system.mem_ctrls1.perBankRdBursts::5            25012                       # Per bank write bursts
system.mem_ctrls1.perBankRdBursts::6            25487                       # Per bank write bursts
system.mem_ctrls1.perBankRdBursts::7            26413                       # Per bank write bursts
system.mem_ctrls1.perBankRdBursts::8            26646                       # Per bank write bursts
system.mem_ctrls1.perBankRdBursts::9            25486                       # Per bank write bursts
system.mem_ctrls1.perBankRdBursts::10           25797                       # Per bank write bursts
system.mem_ctrls1.perBankRdBursts::11           25145                       # Per bank write bursts
system.mem_ctrls1.perBankRdBursts::12           23884                       # Per bank write bursts
system.mem_ctrls1.perBankRdBursts::13           24933                       # Per bank write bursts
system.mem_ctrls1.perBankRdBursts::14           25151                       # Per bank write bursts
system.mem_ctrls1.perBankRdBursts::15           26839                       # Per bank write bursts
system.mem_ctrls1.perBankWrBursts::0            18590                       # Per bank write bursts
system.mem_ctrls1.perBankWrBursts::1            18124                       # Per bank write bursts
system.mem_ctrls1.perBankWrBursts::2            18739                       # Per bank write bursts
system.mem_ctrls1.perBankWrBursts::3            17963                       # Per bank write bursts
system.mem_ctrls1.perBankWrBursts::4            15958                       # Per bank write bursts
system.mem_ctrls1.perBankWrBursts::5            17078                       # Per bank write bursts
system.mem_ctrls1.perBankWrBursts::6            17608                       # Per bank write bursts
system.mem_ctrls1.perBankWrBursts::7            18270                       # Per bank write bursts
system.mem_ctrls1.perBankWrBursts::8            18371                       # Per bank write bursts
system.mem_ctrls1.perBankWrBursts::9            17645                       # Per bank write bursts
system.mem_ctrls1.perBankWrBursts::10           17632                       # Per bank write bursts
system.mem_ctrls1.perBankWrBursts::11           17270                       # Per bank write bursts
system.mem_ctrls1.perBankWrBursts::12           16583                       # Per bank write bursts
system.mem_ctrls1.perBankWrBursts::13           17052                       # Per bank write bursts
system.mem_ctrls1.perBankWrBursts::14           17248                       # Per bank write bursts
system.mem_ctrls1.perBankWrBursts::15           18743                       # Per bank write bursts
system.mem_ctrls1.numRdRetry                        0                       # Number of times read queue was full causing retry
system.mem_ctrls1.numWrRetry                        0                       # Number of times write queue was full causing retry
system.mem_ctrls1.totGap                 1257374425275                       # Total gap between requests
system.mem_ctrls1.readPktSize::0                    0                       # Read request sizes (log2)
system.mem_ctrls1.readPktSize::1                    0                       # Read request sizes (log2)
system.mem_ctrls1.readPktSize::2                    0                       # Read request sizes (log2)
system.mem_ctrls1.readPktSize::3                    0                       # Read request sizes (log2)
system.mem_ctrls1.readPktSize::4                    0                       # Read request sizes (log2)
system.mem_ctrls1.readPktSize::5                    0                       # Read request sizes (log2)
system.mem_ctrls1.readPktSize::6               412730                       # Read request sizes (log2)
system.mem_ctrls1.writePktSize::0                   0                       # Write request sizes (log2)
system.mem_ctrls1.writePktSize::1                   0                       # Write request sizes (log2)
system.mem_ctrls1.writePktSize::2                   0                       # Write request sizes (log2)
system.mem_ctrls1.writePktSize::3                   0                       # Write request sizes (log2)
system.mem_ctrls1.writePktSize::4                   0                       # Write request sizes (log2)
system.mem_ctrls1.writePktSize::5                   0                       # Write request sizes (log2)
system.mem_ctrls1.writePktSize::6              282897                       # Write request sizes (log2)
system.mem_ctrls1.rdQLenPdf::0                 404568                       # What read queue length does an incoming req see
system.mem_ctrls1.rdQLenPdf::1                   6876                       # What read queue length does an incoming req see
system.mem_ctrls1.rdQLenPdf::2                    205                       # What read queue length does an incoming req see
system.mem_ctrls1.rdQLenPdf::3                     19                       # What read queue length does an incoming req see
system.mem_ctrls1.rdQLenPdf::4                      0                       # What read queue length does an incoming req see
system.mem_ctrls1.rdQLenPdf::5                      0                       # What read queue length does an incoming req see
system.mem_ctrls1.rdQLenPdf::6                      0                       # What read queue length does an incoming req see
system.mem_ctrls1.rdQLenPdf::7                      0                       # What read queue length does an incoming req see
system.mem_ctrls1.rdQLenPdf::8                      0                       # What read queue length does an incoming req see
system.mem_ctrls1.rdQLenPdf::9                      0                       # What read queue length does an incoming req see
system.mem_ctrls1.rdQLenPdf::10                     0                       # What read queue length does an incoming req see
system.mem_ctrls1.rdQLenPdf::11                     0                       # What read queue length does an incoming req see
system.mem_ctrls1.rdQLenPdf::12                     0                       # What read queue length does an incoming req see
system.mem_ctrls1.rdQLenPdf::13                     0                       # What read queue length does an incoming req see
system.mem_ctrls1.rdQLenPdf::14                     0                       # What read queue length does an incoming req see
system.mem_ctrls1.rdQLenPdf::15                     0                       # What read queue length does an incoming req see
system.mem_ctrls1.rdQLenPdf::16                     0                       # What read queue length does an incoming req see
system.mem_ctrls1.rdQLenPdf::17                     0                       # What read queue length does an incoming req see
system.mem_ctrls1.rdQLenPdf::18                     0                       # What read queue length does an incoming req see
system.mem_ctrls1.rdQLenPdf::19                     0                       # What read queue length does an incoming req see
system.mem_ctrls1.rdQLenPdf::20                     0                       # What read queue length does an incoming req see
system.mem_ctrls1.rdQLenPdf::21                     0                       # What read queue length does an incoming req see
system.mem_ctrls1.rdQLenPdf::22                     0                       # What read queue length does an incoming req see
system.mem_ctrls1.rdQLenPdf::23                     0                       # What read queue length does an incoming req see
system.mem_ctrls1.rdQLenPdf::24                     0                       # What read queue length does an incoming req see
system.mem_ctrls1.rdQLenPdf::25                     0                       # What read queue length does an incoming req see
system.mem_ctrls1.rdQLenPdf::26                     0                       # What read queue length does an incoming req see
system.mem_ctrls1.rdQLenPdf::27                     0                       # What read queue length does an incoming req see
system.mem_ctrls1.rdQLenPdf::28                     0                       # What read queue length does an incoming req see
system.mem_ctrls1.rdQLenPdf::29                     0                       # What read queue length does an incoming req see
system.mem_ctrls1.rdQLenPdf::30                     0                       # What read queue length does an incoming req see
system.mem_ctrls1.rdQLenPdf::31                     0                       # What read queue length does an incoming req see
system.mem_ctrls1.wrQLenPdf::0                      2                       # What write queue length does an incoming req see
system.mem_ctrls1.wrQLenPdf::1                      2                       # What write queue length does an incoming req see
system.mem_ctrls1.wrQLenPdf::2                      2                       # What write queue length does an incoming req see
system.mem_ctrls1.wrQLenPdf::3                      2                       # What write queue length does an incoming req see
system.mem_ctrls1.wrQLenPdf::4                      2                       # What write queue length does an incoming req see
system.mem_ctrls1.wrQLenPdf::5                      2                       # What write queue length does an incoming req see
system.mem_ctrls1.wrQLenPdf::6                      2                       # What write queue length does an incoming req see
system.mem_ctrls1.wrQLenPdf::7                      2                       # What write queue length does an incoming req see
system.mem_ctrls1.wrQLenPdf::8                      2                       # What write queue length does an incoming req see
system.mem_ctrls1.wrQLenPdf::9                      2                       # What write queue length does an incoming req see
system.mem_ctrls1.wrQLenPdf::10                     2                       # What write queue length does an incoming req see
system.mem_ctrls1.wrQLenPdf::11                     2                       # What write queue length does an incoming req see
system.mem_ctrls1.wrQLenPdf::12                     2                       # What write queue length does an incoming req see
system.mem_ctrls1.wrQLenPdf::13                     2                       # What write queue length does an incoming req see
system.mem_ctrls1.wrQLenPdf::14                     2                       # What write queue length does an incoming req see
system.mem_ctrls1.wrQLenPdf::15                 12520                       # What write queue length does an incoming req see
system.mem_ctrls1.wrQLenPdf::16                 12813                       # What write queue length does an incoming req see
system.mem_ctrls1.wrQLenPdf::17                 15653                       # What write queue length does an incoming req see
system.mem_ctrls1.wrQLenPdf::18                 16039                       # What write queue length does an incoming req see
system.mem_ctrls1.wrQLenPdf::19                 16136                       # What write queue length does an incoming req see
system.mem_ctrls1.wrQLenPdf::20                 16138                       # What write queue length does an incoming req see
system.mem_ctrls1.wrQLenPdf::21                 16122                       # What write queue length does an incoming req see
system.mem_ctrls1.wrQLenPdf::22                 16160                       # What write queue length does an incoming req see
system.mem_ctrls1.wrQLenPdf::23                 16179                       # What write queue length does an incoming req see
system.mem_ctrls1.wrQLenPdf::24                 16169                       # What write queue length does an incoming req see
system.mem_ctrls1.wrQLenPdf::25                 16242                       # What write queue length does an incoming req see
system.mem_ctrls1.wrQLenPdf::26                 16180                       # What write queue length does an incoming req see
system.mem_ctrls1.wrQLenPdf::27                 16113                       # What write queue length does an incoming req see
system.mem_ctrls1.wrQLenPdf::28                 16088                       # What write queue length does an incoming req see
system.mem_ctrls1.wrQLenPdf::29                 16085                       # What write queue length does an incoming req see
system.mem_ctrls1.wrQLenPdf::30                 16104                       # What write queue length does an incoming req see
system.mem_ctrls1.wrQLenPdf::31                 16019                       # What write queue length does an incoming req see
system.mem_ctrls1.wrQLenPdf::32                 16008                       # What write queue length does an incoming req see
system.mem_ctrls1.wrQLenPdf::33                    82                       # What write queue length does an incoming req see
system.mem_ctrls1.wrQLenPdf::34                    15                       # What write queue length does an incoming req see
system.mem_ctrls1.wrQLenPdf::35                     0                       # What write queue length does an incoming req see
system.mem_ctrls1.wrQLenPdf::36                     0                       # What write queue length does an incoming req see
system.mem_ctrls1.wrQLenPdf::37                     0                       # What write queue length does an incoming req see
system.mem_ctrls1.wrQLenPdf::38                     0                       # What write queue length does an incoming req see
system.mem_ctrls1.wrQLenPdf::39                     0                       # What write queue length does an incoming req see
system.mem_ctrls1.wrQLenPdf::40                     0                       # What write queue length does an incoming req see
system.mem_ctrls1.wrQLenPdf::41                     0                       # What write queue length does an incoming req see
system.mem_ctrls1.wrQLenPdf::42                     0                       # What write queue length does an incoming req see
system.mem_ctrls1.wrQLenPdf::43                     0                       # What write queue length does an incoming req see
system.mem_ctrls1.wrQLenPdf::44                     0                       # What write queue length does an incoming req see
system.mem_ctrls1.wrQLenPdf::45                     0                       # What write queue length does an incoming req see
system.mem_ctrls1.wrQLenPdf::46                     0                       # What write queue length does an incoming req see
system.mem_ctrls1.wrQLenPdf::47                     0                       # What write queue length does an incoming req see
system.mem_ctrls1.wrQLenPdf::48                     0                       # What write queue length does an incoming req see
system.mem_ctrls1.wrQLenPdf::49                     0                       # What write queue length does an incoming req see
system.mem_ctrls1.wrQLenPdf::50                     0                       # What write queue length does an incoming req see
system.mem_ctrls1.wrQLenPdf::51                     0                       # What write queue length does an incoming req see
system.mem_ctrls1.wrQLenPdf::52                     0                       # What write queue length does an incoming req see
system.mem_ctrls1.wrQLenPdf::53                     0                       # What write queue length does an incoming req see
system.mem_ctrls1.wrQLenPdf::54                     0                       # What write queue length does an incoming req see
system.mem_ctrls1.wrQLenPdf::55                     0                       # What write queue length does an incoming req see
system.mem_ctrls1.wrQLenPdf::56                     0                       # What write queue length does an incoming req see
system.mem_ctrls1.wrQLenPdf::57                     0                       # What write queue length does an incoming req see
system.mem_ctrls1.wrQLenPdf::58                     0                       # What write queue length does an incoming req see
system.mem_ctrls1.wrQLenPdf::59                     0                       # What write queue length does an incoming req see
system.mem_ctrls1.wrQLenPdf::60                     0                       # What write queue length does an incoming req see
system.mem_ctrls1.wrQLenPdf::61                     0                       # What write queue length does an incoming req see
system.mem_ctrls1.wrQLenPdf::62                     0                       # What write queue length does an incoming req see
system.mem_ctrls1.wrQLenPdf::63                     0                       # What write queue length does an incoming req see
system.mem_ctrls1.bytesPerActivate::samples       451658                       # Bytes accessed per row activation
system.mem_ctrls1.bytesPerActivate::mean    98.416696                       # Bytes accessed per row activation
system.mem_ctrls1.bytesPerActivate::gmean    81.301817                       # Bytes accessed per row activation
system.mem_ctrls1.bytesPerActivate::stdev   101.115065                       # Bytes accessed per row activation
system.mem_ctrls1.bytesPerActivate::0-127       348522     77.17%     77.17% # Bytes accessed per row activation
system.mem_ctrls1.bytesPerActivate::128-255        75419     16.70%     93.86% # Bytes accessed per row activation
system.mem_ctrls1.bytesPerActivate::256-383        16033      3.55%     97.41% # Bytes accessed per row activation
system.mem_ctrls1.bytesPerActivate::384-511         5767      1.28%     98.69% # Bytes accessed per row activation
system.mem_ctrls1.bytesPerActivate::512-639         1895      0.42%     99.11% # Bytes accessed per row activation
system.mem_ctrls1.bytesPerActivate::640-767          931      0.21%     99.32% # Bytes accessed per row activation
system.mem_ctrls1.bytesPerActivate::768-895          757      0.17%     99.48% # Bytes accessed per row activation
system.mem_ctrls1.bytesPerActivate::896-1023          635      0.14%     99.62% # Bytes accessed per row activation
system.mem_ctrls1.bytesPerActivate::1024-1151         1699      0.38%    100.00% # Bytes accessed per row activation
system.mem_ctrls1.bytesPerActivate::total       451658                       # Bytes accessed per row activation
system.mem_ctrls1.rdPerTurnAround::samples        16007                       # Reads before turning the bus around for writes
system.mem_ctrls1.rdPerTurnAround::mean     25.716749                       # Reads before turning the bus around for writes
system.mem_ctrls1.rdPerTurnAround::stdev   227.431630                       # Reads before turning the bus around for writes
system.mem_ctrls1.rdPerTurnAround::0-1023        16006     99.99%     99.99% # Reads before turning the bus around for writes
system.mem_ctrls1.rdPerTurnAround::28672-29695            1      0.01%    100.00% # Reads before turning the bus around for writes
system.mem_ctrls1.rdPerTurnAround::total        16007                       # Reads before turning the bus around for writes
system.mem_ctrls1.wrPerTurnAround::samples        16007                       # Writes before turning the bus around for reads
system.mem_ctrls1.wrPerTurnAround::mean     17.671894                       # Writes before turning the bus around for reads
system.mem_ctrls1.wrPerTurnAround::gmean    17.647298                       # Writes before turning the bus around for reads
system.mem_ctrls1.wrPerTurnAround::stdev     0.919433                       # Writes before turning the bus around for reads
system.mem_ctrls1.wrPerTurnAround::16            3260     20.37%     20.37% # Writes before turning the bus around for reads
system.mem_ctrls1.wrPerTurnAround::17             187      1.17%     21.53% # Writes before turning the bus around for reads
system.mem_ctrls1.wrPerTurnAround::18           11323     70.74%     92.27% # Writes before turning the bus around for reads
system.mem_ctrls1.wrPerTurnAround::19            1069      6.68%     98.95% # Writes before turning the bus around for reads
system.mem_ctrls1.wrPerTurnAround::20             132      0.82%     99.78% # Writes before turning the bus around for reads
system.mem_ctrls1.wrPerTurnAround::21              25      0.16%     99.93% # Writes before turning the bus around for reads
system.mem_ctrls1.wrPerTurnAround::22               9      0.06%     99.99% # Writes before turning the bus around for reads
system.mem_ctrls1.wrPerTurnAround::23               1      0.01%     99.99% # Writes before turning the bus around for reads
system.mem_ctrls1.wrPerTurnAround::24               1      0.01%    100.00% # Writes before turning the bus around for reads
system.mem_ctrls1.wrPerTurnAround::total        16007                       # Writes before turning the bus around for reads
system.mem_ctrls1.totQLat                 19778382573                       # Total ticks spent queuing
system.mem_ctrls1.totMemAccLat            27497157573                       # Total ticks spent from burst creation until serviced by the DRAM
system.mem_ctrls1.totBusLat                2058340000                       # Total ticks spent in databus transfers
system.mem_ctrls1.avgQLat                    48044.50                       # Average queueing delay per DRAM burst
system.mem_ctrls1.avgBusLat                   5000.00                       # Average bus latency per DRAM burst
system.mem_ctrls1.avgMemAccLat               66794.50                       # Average memory access latency per DRAM burst
system.mem_ctrls1.avgRdBW                       20.95                       # Average DRAM read bandwidth in MiByte/s
system.mem_ctrls1.avgWrBW                       14.40                       # Average achieved write bandwidth in MiByte/s
system.mem_ctrls1.avgRdBWSys                    21.01                       # Average system read bandwidth in MiByte/s
system.mem_ctrls1.avgWrBWSys                    14.40                       # Average system write bandwidth in MiByte/s
system.mem_ctrls1.peakBW                     12800.00                       # Theoretical peak bandwidth in MiByte/s
system.mem_ctrls1.busUtil                        0.28                       # Data bus utilization in percentage
system.mem_ctrls1.busUtilRead                    0.16                       # Data bus utilization in percentage for reads
system.mem_ctrls1.busUtilWrite                   0.11                       # Data bus utilization in percentage for writes
system.mem_ctrls1.avgRdQLen                      1.00                       # Average read queue length when enqueuing
system.mem_ctrls1.avgWrQLen                     22.84                       # Average write queue length when enqueuing
system.mem_ctrls1.readRowHits                  189225                       # Number of row buffer hits during reads
system.mem_ctrls1.writeRowHits                  53659                       # Number of row buffer hits during writes
system.mem_ctrls1.readRowHitRate                45.97                       # Row buffer hit rate for reads
system.mem_ctrls1.writeRowHitRate               18.97                       # Row buffer hit rate for writes
system.mem_ctrls1.avgGap                   1807541.15                       # Average gap between requests
system.mem_ctrls1.pageHitRate                   34.97                       # Row buffer hit rate, read and write combined
system.mem_ctrls1_0.actEnergy              1623357540                       # Energy for activate commands per rank (pJ)
system.mem_ctrls1_0.preEnergy               862834995                       # Energy for precharge commands per rank (pJ)
system.mem_ctrls1_0.readEnergy             1483599180                       # Energy for read commands per rank (pJ)
system.mem_ctrls1_0.writeEnergy             742962600                       # Energy for write commands per rank (pJ)
system.mem_ctrls1_0.refreshEnergy        48216664080.000008                       # Energy for refresh commands per rank (pJ)
system.mem_ctrls1_0.actBackEnergy         27409151100                       # Energy for active background per rank (pJ)
system.mem_ctrls1_0.preBackEnergy          2295686880                       # Energy for precharge background per rank (pJ)
system.mem_ctrls1_0.actPowerDownEnergy   127075839330                       # Energy for active power-down per rank (pJ)
system.mem_ctrls1_0.prePowerDownEnergy    63649933440                       # Energy for precharge power-down per rank (pJ)
system.mem_ctrls1_0.selfRefreshEnergy    186909502455                       # Energy for self refresh per rank (pJ)
system.mem_ctrls1_0.totalEnergy          460285460760                       # Total energy per rank (pJ)
system.mem_ctrls1_0.averagePower           366.043818                       # Core power per rank (mW)
system.mem_ctrls1_0.totalIdleTime        1191227131922                       # Total Idle time Per DRAM Rank
system.mem_ctrls1_0.memoryStateTime::IDLE   4006595952                       # Time in different power states
system.mem_ctrls1_0.memoryStateTime::REF  20480724000                       # Time in different power states
system.mem_ctrls1_0.memoryStateTime::SREF 746908229406                       # Time in different power states
system.mem_ctrls1_0.memoryStateTime::PRE_PDN 165754728837                       # Time in different power states
system.mem_ctrls1_0.memoryStateTime::ACT  41633606952                       # Time in different power states
system.mem_ctrls1_0.memoryStateTime::ACT_PDN 278676107009                       # Time in different power states
system.mem_ctrls1_1.actEnergy              1601480580                       # Energy for activate commands per rank (pJ)
system.mem_ctrls1_1.preEnergy               851207115                       # Energy for precharge commands per rank (pJ)
system.mem_ctrls1_1.readEnergy             1455710340                       # Energy for read commands per rank (pJ)
system.mem_ctrls1_1.writeEnergy             733639680                       # Energy for write commands per rank (pJ)
system.mem_ctrls1_1.refreshEnergy        48849743280.000008                       # Energy for refresh commands per rank (pJ)
system.mem_ctrls1_1.actBackEnergy         27471269700                       # Energy for active background per rank (pJ)
system.mem_ctrls1_1.preBackEnergy          2327774400                       # Energy for precharge background per rank (pJ)
system.mem_ctrls1_1.actPowerDownEnergy   128972521740                       # Energy for active power-down per rank (pJ)
system.mem_ctrls1_1.prePowerDownEnergy    64800876960                       # Energy for precharge power-down per rank (pJ)
system.mem_ctrls1_1.selfRefreshEnergy    185188750545                       # Energy for self refresh per rank (pJ)
system.mem_ctrls1_1.totalEnergy          462271388850                       # Total energy per rank (pJ)
system.mem_ctrls1_1.averagePower           367.623135                       # Core power per rank (mW)
system.mem_ctrls1_1.totalIdleTime        1190875774824                       # Total Idle time Per DRAM Rank
system.mem_ctrls1_1.memoryStateTime::IDLE   4070861830                       # Time in different power states
system.mem_ctrls1_1.memoryStateTime::REF  20749184000                       # Time in different power states
system.mem_ctrls1_1.memoryStateTime::SREF 739526413906                       # Time in different power states
system.mem_ctrls1_1.memoryStateTime::PRE_PDN 168752159489                       # Time in different power states
system.mem_ctrls1_1.memoryStateTime::ACT  41526173030                       # Time in different power states
system.mem_ctrls1_1.memoryStateTime::ACT_PDN 282835199901                       # Time in different power states
system.pwrStateResidencyTicks::UNDEFINED 191308769907156                       # Cumulative time (in ticks) in various power states
system.cpu.branchPred.lookups                       4                       # Number of BP lookups
system.cpu.branchPred.condPredicted                 2                       # Number of conditional branches predicted
system.cpu.branchPred.condIncorrect                 2                       # Number of conditional branches incorrect
system.cpu.branchPred.BTBLookups                    2                       # Number of BTB lookups
system.cpu.branchPred.BTBHits                       0                       # Number of BTB hits
system.cpu.branchPred.BTBCorrect                    0                       # Number of correct BTB predictions (this stat may not work properly.
system.cpu.branchPred.BTBHitPct              0.000000                       # BTB Hit Percentage
system.cpu.branchPred.usedRAS                       0                       # Number of times the RAS was used to get a target.
system.cpu.branchPred.RASInCorrect                  0                       # Number of incorrect RAS predictions.
system.cpu.branchPred.indirectLookups               0                       # Number of indirect predictor lookups.
system.cpu.branchPred.indirectHits                  0                       # Number of indirect target hits.
system.cpu.branchPred.indirectMisses                0                       # Number of indirect misses.
system.cpu.branchPredindirectMispredicted            0                       # Number of mispredicted indirect branches.
system.cpu_voltage_domain.voltage                   1                       # Voltage in Volts
system.cpu_clk_domain.clock                       333                       # Clock period in ticks
system.cpu.dtb.fetch_hits                           0                       # ITB hits
system.cpu.dtb.fetch_misses                         0                       # ITB misses
system.cpu.dtb.fetch_acv                            0                       # ITB acv
system.cpu.dtb.fetch_accesses                       0                       # ITB accesses
system.cpu.dtb.read_hits                            6                       # DTB read hits
system.cpu.dtb.read_misses                          0                       # DTB read misses
system.cpu.dtb.read_acv                             0                       # DTB read access violations
system.cpu.dtb.read_accesses                        6                       # DTB read accesses
system.cpu.dtb.write_hits                           1                       # DTB write hits
system.cpu.dtb.write_misses                         0                       # DTB write misses
system.cpu.dtb.write_acv                            0                       # DTB write access violations
system.cpu.dtb.write_accesses                       1                       # DTB write accesses
system.cpu.dtb.data_hits                            7                       # DTB hits
system.cpu.dtb.data_misses                          0                       # DTB misses
system.cpu.dtb.data_acv                             0                       # DTB access violations
system.cpu.dtb.data_accesses                        7                       # DTB accesses
system.cpu.itb.fetch_hits                           7                       # ITB hits
system.cpu.itb.fetch_misses                         0                       # ITB misses
system.cpu.itb.fetch_acv                            0                       # ITB acv
system.cpu.itb.fetch_accesses                       7                       # ITB accesses
system.cpu.itb.read_hits                            0                       # DTB read hits
system.cpu.itb.read_misses                          0                       # DTB read misses
system.cpu.itb.read_acv                             0                       # DTB read access violations
system.cpu.itb.read_accesses                        0                       # DTB read accesses
system.cpu.itb.write_hits                           0                       # DTB write hits
system.cpu.itb.write_misses                         0                       # DTB write misses
system.cpu.itb.write_acv                            0                       # DTB write access violations
system.cpu.itb.write_accesses                       0                       # DTB write accesses
system.cpu.itb.data_hits                            0                       # DTB hits
system.cpu.itb.data_misses                          0                       # DTB misses
system.cpu.itb.data_acv                             0                       # DTB access violations
system.cpu.itb.data_accesses                        0                       # DTB accesses
system.cpu.workload.num_syscalls                    0                       # Number of system calls
system.cpu.pwrStateResidencyTicks::ON    1257459992156                       # Cumulative time (in ticks) in various power states
system.cpu.numCycles                             1091                       # number of cpu cycles simulated
system.cpu.numWorkItemsStarted                      0                       # number of work items this cpu started
system.cpu.numWorkItemsCompleted                    0                       # number of work items this cpu completed
system.cpu.fetch.icacheStallCycles                 50                       # Number of cycles fetch is stalled on an Icache miss
system.cpu.fetch.Insts                             19                       # Number of instructions fetch has processed
system.cpu.fetch.Branches                           4                       # Number of branches that fetch encountered
system.cpu.fetch.Cycles                             4                       # Number of cycles fetch has run and was not squashing or blocked
system.cpu.fetch.SquashCycles                       7                       # Number of cycles fetch has spent squashing
system.cpu.fetch.PendingDrainCycles                 6                       # Number of cycles fetch has spent waiting on pipes to drain
system.cpu.fetch.CacheLines                         7                       # Number of cache lines fetched
system.cpu.fetch.IcacheSquashes                     4                       # Number of outstanding Icache misses that were squashed
system.cpu.fetch.rateDist::samples                 63                       # Number of instructions fetched each cycle (Total)
system.cpu.fetch.rateDist::mean              0.301587                       # Number of instructions fetched each cycle (Total)
system.cpu.fetch.rateDist::stdev             1.432738                       # Number of instructions fetched each cycle (Total)
system.cpu.fetch.rateDist::underflows               0      0.00%      0.00% # Number of instructions fetched each cycle (Total)
system.cpu.fetch.rateDist::0                       59     93.65%     93.65% # Number of instructions fetched each cycle (Total)
system.cpu.fetch.rateDist::1                        1      1.59%     95.24% # Number of instructions fetched each cycle (Total)
system.cpu.fetch.rateDist::2                        1      1.59%     96.83% # Number of instructions fetched each cycle (Total)
system.cpu.fetch.rateDist::3                        0      0.00%     96.83% # Number of instructions fetched each cycle (Total)
system.cpu.fetch.rateDist::4                        0      0.00%     96.83% # Number of instructions fetched each cycle (Total)
system.cpu.fetch.rateDist::5                        0      0.00%     96.83% # Number of instructions fetched each cycle (Total)
[...]
system.switch_cpus_1.iq.int_inst_queue_writes    560234008                       # Number of integer instruction queue writes
system.switch_cpus_1.iq.int_inst_queue_wakeup_accesses    316439428                       # Number of integer instruction queue wakeup accesses
system.switch_cpus_1.iq.fp_inst_queue_reads          222                       # Number of floating instruction queue reads
system.switch_cpus_1.iq.fp_inst_queue_writes          177                       # Number of floating instruction queue writes
system.switch_cpus_1.iq.fp_inst_queue_wakeup_accesses          101                       # Number of floating instruction queue wakeup accesses
system.switch_cpus_1.iq.int_alu_accesses    341395357                       # Number of integer alu accesses
system.switch_cpus_1.iq.fp_alu_accesses           111                       # Number of floating point alu accesses
system.switch_cpus_1.iew.lsq.thread0.forwLoads      3718485                       # Number of loads that had data forwarded from stores
system.switch_cpus_1.iew.lsq.thread0.invAddrLoads            0                       # Number of loads ignored due to an invalid address
system.switch_cpus_1.iew.lsq.thread0.squashedLoads     43035218                       # Number of loads squashed
system.switch_cpus_1.iew.lsq.thread0.ignoredResponses        24626                       # Number of memory responses ignored because the instruction is squashed
system.switch_cpus_1.iew.lsq.thread0.memOrderViolation        12323                       # Number of memory ordering violations
system.switch_cpus_1.iew.lsq.thread0.squashedStores     13360702                       # Number of stores squashed
system.switch_cpus_1.iew.lsq.thread0.invAddrSwpfs            0                       # Number of software prefetches ignored due to an invalid address
system.switch_cpus_1.iew.lsq.thread0.blockedLoads            0                       # Number of blocked loads due to partial load-store forwarding
system.switch_cpus_1.iew.lsq.thread0.rescheduledLoads            0                       # Number of loads that were rescheduled
system.switch_cpus_1.iew.lsq.thread0.cacheBlocked      6325426                       # Number of times an access to memory failed due to the cache being blocked
system.switch_cpus_1.iew.iewIdleCycles              0                       # Number of cycles IEW is idle
system.switch_cpus_1.iew.iewSquashCycles      3282790                       # Number of cycles IEW is squashing
system.switch_cpus_1.iew.iewBlockCycles      42619432                       # Number of cycles IEW is blocking
system.switch_cpus_1.iew.iewUnblockCycles     12993808                       # Number of cycles IEW is unblocking
system.switch_cpus_1.iew.iewDispatchedInsts    380806126                       # Number of instructions dispatched to IQ
system.switch_cpus_1.iew.iewDispSquashedInsts       966717                       # Number of squashed instructions skipped by dispatch
system.switch_cpus_1.iew.iewDispLoadInsts     92467966                       # Number of dispatched load instructions
system.switch_cpus_1.iew.iewDispStoreInsts     27426190                       # Number of dispatched store instructions
system.switch_cpus_1.iew.iewDispNonSpecInsts            0                       # Number of dispatched non-speculative instructions
system.switch_cpus_1.iew.iewIQFullEvents       222943                       # Number of times the IQ has become full, causing a stall
system.switch_cpus_1.iew.iewLSQFullEvents     12638126                       # Number of times the LSQ has become full, causing a stall
system.switch_cpus_1.iew.memOrderViolationEvents        12323                       # Number of memory order violations
system.switch_cpus_1.iew.predictedTakenIncorrect      1681555                       # Number of branches that were predicted taken incorrectly
system.switch_cpus_1.iew.predictedNotTakenIncorrect      1798846                       # Number of branches that were predicted not taken incorrectly
system.switch_cpus_1.iew.branchMispredicts      3480401                       # Number of branch mispredicts detected at execute
system.switch_cpus_1.iew.iewExecutedInsts    330622786                       # Number of executed instructions
system.switch_cpus_1.iew.iewExecLoadInsts     86950292                       # Number of load instructions executed
system.switch_cpus_1.iew.iewExecSquashedInsts      6263218                       # Number of squashed instructions skipped in execute
system.switch_cpus_1.iew.exec_swp                   0                       # number of swp insts executed
system.switch_cpus_1.iew.exec_nop              694850                       # number of nop insts executed
system.switch_cpus_1.iew.exec_refs          107804966                       # number of memory reference insts executed
system.switch_cpus_1.iew.exec_branches       38465893                       # Number of branches executed
system.switch_cpus_1.iew.exec_stores         20854674                       # Number of stores executed
system.switch_cpus_1.iew.exec_rate           1.533619                       # Inst execution rate
system.switch_cpus_1.iew.wb_sent            320000679                       # cumulative count of insts sent to commit
system.switch_cpus_1.iew.wb_count           316439529                       # cumulative count of insts written-back
system.switch_cpus_1.iew.wb_producers       205833369                       # num instructions producing a value
system.switch_cpus_1.iew.wb_consumers       270502115                       # num instructions consuming a value
system.switch_cpus_1.iew.wb_rate             1.467828                       # insts written-back per cycle
system.switch_cpus_1.iew.wb_fanout           0.760931                       # average fanout of values written-back
system.switch_cpus_1.commit.commitSquashedInsts    171048645                       # The number of squashed insts skipped by commit
system.switch_cpus_1.commit.branchMispredicts      2837984                       # The number of times a branch was mispredicted
system.switch_cpus_1.commit.committed_per_cycle::samples    191826003                       # Number of insts commited each cycle
system.switch_cpus_1.commit.committed_per_cycle::mean     1.045421                       # Number of insts commited each cycle
system.switch_cpus_1.commit.committed_per_cycle::stdev     2.255714                       # Number of insts commited each cycle
system.switch_cpus_1.commit.committed_per_cycle::underflows            0      0.00%      0.00% # Number of insts commited each cycle
system.switch_cpus_1.commit.committed_per_cycle::0    137942571     71.91%     71.91% # Number of insts commited each cycle
system.switch_cpus_1.commit.committed_per_cycle::1     17142864      8.94%     80.85% # Number of insts commited each cycle
system.switch_cpus_1.commit.committed_per_cycle::2     11054058      5.76%     86.61% # Number of insts commited each cycle
system.switch_cpus_1.commit.committed_per_cycle::3      4950607      2.58%     89.19% # Number of insts commited each cycle
system.switch_cpus_1.commit.committed_per_cycle::4      2520438      1.31%     90.50% # Number of insts commited each cycle
system.switch_cpus_1.commit.committed_per_cycle::5      1898540      0.99%     91.49% # Number of insts commited each cycle
system.switch_cpus_1.commit.committed_per_cycle::6      1411446      0.74%     92.23% # Number of insts commited each cycle
system.switch_cpus_1.commit.committed_per_cycle::7       850829      0.44%     92.67% # Number of insts commited each cycle
system.switch_cpus_1.commit.committed_per_cycle::8     14054650      7.33%    100.00% # Number of insts commited each cycle
system.switch_cpus_1.commit.committed_per_cycle::overflows            0      0.00%    100.00% # Number of insts commited each cycle
system.switch_cpus_1.commit.committed_per_cycle::min_value            0                       # Number of insts commited each cycle
system.switch_cpus_1.commit.committed_per_cycle::max_value            8                       # Number of insts commited each cycle
system.switch_cpus_1.commit.committed_per_cycle::total    191826003                       # Number of insts commited each cycle
system.switch_cpus_1.commit.committedInsts    200538932                       # Number of instructions committed
system.switch_cpus_1.commit.committedOps    200538932                       # Number of ops (including micro ops) committed
system.switch_cpus_1.commit.swp_count               0                       # Number of s/w prefetches committed
system.switch_cpus_1.commit.refs             63498195                       # Number of memory references committed
system.switch_cpus_1.commit.loads            49432720                       # Number of loads committed
system.switch_cpus_1.commit.membars                 0                       # Number of memory barriers committed
system.switch_cpus_1.commit.branches         24329166                       # Number of branches committed
system.switch_cpus_1.commit.fp_insts               91                       # Number of committed floating point instructions.
system.switch_cpus_1.commit.int_insts       197997126                       # Number of committed integer instructions.
system.switch_cpus_1.commit.function_calls       749984                       # Number of function calls committed.
system.switch_cpus_1.commit.op_class_0::No_OpClass       538941      0.27%      0.27% # Class of committed instruction
system.switch_cpus_1.commit.op_class_0::IntAlu    136501742     68.07%     68.34% # Class of committed instruction
system.switch_cpus_1.commit.op_class_0::IntMult            0      0.00%     68.34% # Class of committed instruction
system.switch_cpus_1.commit.op_class_0::IntDiv            0      0.00%     68.34% # Class of committed instruction
system.switch_cpus_1.commit.op_class_0::FloatAdd           30      0.00%     68.34% # Class of committed instruction
system.switch_cpus_1.commit.op_class_0::FloatCmp            0      0.00%     68.34% # Class of committed instruction
system.switch_cpus_1.commit.op_class_0::FloatCvt           18      0.00%     68.34% # Class of committed instruction
system.switch_cpus_1.commit.op_class_0::FloatMult            0      0.00%     68.34% # Class of committed instruction
system.switch_cpus_1.commit.op_class_0::FloatMultAcc            0      0.00%     68.34% # Class of committed instruction
system.switch_cpus_1.commit.op_class_0::FloatDiv            6      0.00%     68.34% # Class of committed instruction
system.switch_cpus_1.commit.op_class_0::FloatMisc            0      0.00%     68.34% # Class of committed instruction
system.switch_cpus_1.commit.op_class_0::FloatSqrt            0      0.00%     68.34% # Class of committed instruction
system.switch_cpus_1.commit.op_class_0::SimdAdd            0      0.00%     68.34% # Class of committed instruction
system.switch_cpus_1.commit.op_class_0::SimdAddAcc            0      0.00%     68.34% # Class of committed instruction
system.switch_cpus_1.commit.op_class_0::SimdAlu            0      0.00%     68.34% # Class of committed instruction
system.switch_cpus_1.commit.op_class_0::SimdCmp            0      0.00%     68.34% # Class of committed instruction
system.switch_cpus_1.commit.op_class_0::SimdCvt            0      0.00%     68.34% # Class of committed instruction
system.switch_cpus_1.commit.op_class_0::SimdMisc            0      0.00%     68.34% # Class of committed instruction
system.switch_cpus_1.commit.op_class_0::SimdMult            0      0.00%     68.34% # Class of committed instruction
system.switch_cpus_1.commit.op_class_0::SimdMultAcc            0      0.00%     68.34% # Class of committed instruction
system.switch_cpus_1.commit.op_class_0::SimdShift            0      0.00%     68.34% # Class of committed instruction
system.switch_cpus_1.commit.op_class_0::SimdShiftAcc            0      0.00%     68.34% # Class of committed instruction
system.switch_cpus_1.commit.op_class_0::SimdSqrt            0      0.00%     68.34% # Class of committed instruction
system.switch_cpus_1.commit.op_class_0::SimdFloatAdd            0      0.00%     68.34% # Class of committed instruction
system.switch_cpus_1.commit.op_class_0::SimdFloatAlu            0      0.00%     68.34% # Class of committed instruction
system.switch_cpus_1.commit.op_class_0::SimdFloatCmp            0      0.00%     68.34% # Class of committed instruction
system.switch_cpus_1.commit.op_class_0::SimdFloatCvt            0      0.00%     68.34% # Class of committed instruction
system.switch_cpus_1.commit.op_class_0::SimdFloatDiv            0      0.00%     68.34% # Class of committed instruction
system.switch_cpus_1.commit.op_class_0::SimdFloatMisc            0      0.00%     68.34% # Class of committed instruction
system.switch_cpus_1.commit.op_class_0::SimdFloatMult            0      0.00%     68.34% # Class of committed instruction
system.switch_cpus_1.commit.op_class_0::SimdFloatMultAcc            0      0.00%     68.34% # Class of committed instruction
system.switch_cpus_1.commit.op_class_0::SimdFloatSqrt            0      0.00%     68.34% # Class of committed instruction
system.switch_cpus_1.commit.op_class_0::MemRead     49432701     24.65%     92.99% # Class of committed instruction
system.switch_cpus_1.commit.op_class_0::MemWrite     14065457      7.01%    100.00% # Class of committed instruction
system.switch_cpus_1.commit.op_class_0::FloatMemRead           19      0.00%    100.00% # Class of committed instruction
system.switch_cpus_1.commit.op_class_0::FloatMemWrite           18      0.00%    100.00% # Class of committed instruction
system.switch_cpus_1.commit.op_class_0::IprAccess            0      0.00%    100.00% # Class of committed instruction
system.switch_cpus_1.commit.op_class_0::InstPrefetch            0      0.00%    100.00% # Class of committed instruction
system.switch_cpus_1.commit.op_class_0::total    200538932                       # Class of committed instruction
system.switch_cpus_1.commit.bw_lim_events     14054650                       # number cycles where commit BW limit reached
system.switch_cpus_1.rob.rob_reads          543703306                       # The number of ROB reads
system.switch_cpus_1.rob.rob_writes         766947412                       # The number of ROB writes
system.switch_cpus_1.timesIdled                   191                       # Number of times that the entire CPU went into an idle state and unscheduled itself
system.switch_cpus_1.idleCycles                 14950                       # Total number of cycles that the CPU has spent unscheduled due to idling
system.switch_cpus_1.committedInsts         200000003                       # Number of Instructions Simulated
system.switch_cpus_1.committedOps           200000003                       # Number of Ops (including micro ops) Simulated
system.switch_cpus_1.cpi                     1.077917                       # CPI: Cycles Per Instruction
system.switch_cpus_1.cpi_total               1.077917                       # CPI: Total CPI of All Threads
system.switch_cpus_1.ipc                     0.927715                       # IPC: Instructions Per Cycle
system.switch_cpus_1.ipc_total               0.927715                       # IPC: Total IPC of All Threads
system.switch_cpus_1.int_regfile_reads      449915953                       # number of integer regfile reads
system.switch_cpus_1.int_regfile_writes     260646947                       # number of integer regfile writes
system.switch_cpus_1.fp_regfile_reads              63                       # number of floating regfile reads
system.switch_cpus_1.fp_regfile_writes            103                       # number of floating regfile writes
system.switch_cpus_1.misc_regfile_reads            12                       # number of misc regfile reads
system.switch_cpus_1.misc_regfile_writes            6                       # number of misc regfile writes
system.tol3bus.snoop_filter.tot_requests     15148830                       # Total number of requests made to the snoop filter.
system.tol3bus.snoop_filter.hit_single_requests      7572260                       # Number of requests hitting in the snoop filter with a single holder of the requested data.
system.tol3bus.snoop_filter.hit_multi_requests            0                       # Number of requests hitting in the snoop filter with multiple (>1) holders of the requested data.
system.tol3bus.snoop_filter.tot_snoops           1246                       # Total number of snoops made to the snoop filter.
system.tol3bus.snoop_filter.hit_single_snoops         1246                       # Number of snoops hitting in the snoop filter with a single holder of the requested data.
system.tol3bus.snoop_filter.hit_multi_snoops            0                       # Number of snoops hitting in the snoop filter with multiple (>1) holders of the requested data.
system.tol3bus.pwrStateResidencyTicks::UNDEFINED 191308769907156                       # Cumulative time (in ticks) in various power states
system.tol3bus.trans_dist::ReadResp           5401161                       # Transaction distribution
system.tol3bus.trans_dist::WritebackDirty      4592229                       # Transaction distribution
system.tol3bus.trans_dist::CleanEvict         3740351                       # Transaction distribution
system.tol3bus.trans_dist::UpgradeReq               4                       # Transaction distribution
system.tol3bus.trans_dist::UpgradeResp              4                       # Transaction distribution
system.tol3bus.trans_dist::ReadExReq          2175409                       # Transaction distribution
system.tol3bus.trans_dist::ReadExResp         2175409                       # Transaction distribution
system.tol3bus.trans_dist::ReadSharedReq      5401161                       # Transaction distribution
system.tol3bus.pkt_count_system.cpu.l2.mem_side::system.l3.cpu_side     22725404                       # Packet count per connected master and slave (bytes)
system.tol3bus.pkt_size_system.cpu.l2.mem_side::system.l3.cpu_side    742583872                       # Cumulative packet size per connected master and slave (bytes)
system.tol3bus.snoops                          760324                       # Total snoops (count)
system.tol3bus.snoopTraffic                  36219264                       # Total snoop traffic (bytes)
system.tol3bus.snoop_fanout::samples          8336898                       # Request fanout histogram
system.tol3bus.snoop_fanout::mean            0.000149                       # Request fanout histogram
system.tol3bus.snoop_fanout::stdev           0.012224                       # Request fanout histogram
system.tol3bus.snoop_fanout::underflows             0      0.00%      0.00% # Request fanout histogram
system.tol3bus.snoop_fanout::0                8335652     99.99%     99.99% # Request fanout histogram
system.tol3bus.snoop_fanout::1                   1246      0.01%    100.00% # Request fanout histogram
system.tol3bus.snoop_fanout::overflows              0      0.00%    100.00% # Request fanout histogram
system.tol3bus.snoop_fanout::min_value              0                       # Request fanout histogram
system.tol3bus.snoop_fanout::max_value              1                       # Request fanout histogram
system.tol3bus.snoop_fanout::total            8336898                       # Request fanout histogram
system.tol3bus.reqLayer0.occupancy         6385319289                       # Layer occupancy (ticks)
system.tol3bus.reqLayer0.utilization              0.5                       # Layer utilization (%)
system.tol3bus.respLayer0.occupancy        5045996952                       # Layer occupancy (ticks)
system.tol3bus.respLayer0.utilization             0.4                       # Layer utilization (%)

---------- End Simulation Statistics   ----------
