
---------- Begin Simulation Statistics ----------
sim_seconds                                  1.778800                       # Number of seconds simulated
sim_ticks                                1778799598488                       # Number of ticks simulated
final_tick                               75048953399190                       # Number of ticks from beginning of simulation (restored from checkpoints and never reset)
sim_freq                                 1000000000000                       # Frequency of simulated ticks
host_inst_rate                                 347754                       # Simulator instruction rate (inst/s)
host_op_rate                                   347754                       # Simulator op (including micro ops) rate (op/s)
host_tick_rate                              515486593                       # Simulator tick rate (ticks/s)
host_mem_usage                                2403908                       # Number of bytes of host memory used
host_seconds                                  3450.72                       # Real time elapsed on the host
sim_insts                                  1200000010                       # Number of instructions simulated
sim_ops                                    1200000010                       # Number of ops (including micro ops) simulated
system.voltage_domain.voltage                       1                       # Voltage in Volts
system.clk_domain.clock                          1000                       # Clock period in ticks
system.mem_ctrls0.pwrStateResidencyTicks::UNDEFINED 75048953399190                       # Cumulative time (in ticks) in various power states
system.mem_ctrls0.bytes_read::cpu.inst            128                       # Number of bytes read from this memory
system.mem_ctrls0.bytes_read::cpu.data            192                       # Number of bytes read from this memory
system.mem_ctrls0.bytes_read::switch_cpus.inst        43968                       # Number of bytes read from this memory
system.mem_ctrls0.bytes_read::switch_cpus.data    233283328                       # Number of bytes read from this memory
system.mem_ctrls0.bytes_read::switch_cpus_1.inst         3456                       # Number of bytes read from this memory
system.mem_ctrls0.bytes_read::switch_cpus_1.data     40907456                       # Number of bytes read from this memory
system.mem_ctrls0.bytes_read::total         274238528                       # Number of bytes read from this memory
system.mem_ctrls0.bytes_inst_read::cpu.inst          128                       # Number of instructions bytes read from this memory
system.mem_ctrls0.bytes_inst_read::switch_cpus.inst        43968                       # Number of instructions bytes read from this memory
system.mem_ctrls0.bytes_inst_read::switch_cpus_1.inst         3456                       # Number of instructions bytes read from this memory
system.mem_ctrls0.bytes_inst_read::total        47552                       # Number of instructions bytes read from this memory
system.mem_ctrls0.bytes_written::writebacks     87698368                       # Number of bytes written to this memory
system.mem_ctrls0.bytes_written::total       87698368                       # Number of bytes written to this memory
system.mem_ctrls0.num_reads::cpu.inst               2                       # Number of read requests responded to by this memory
system.mem_ctrls0.num_reads::cpu.data               3                       # Number of read requests responded to by this memory
system.mem_ctrls0.num_reads::switch_cpus.inst          687                       # Number of read requests responded to by this memory
system.mem_ctrls0.num_reads::switch_cpus.data      3645052                       # Number of read requests responded to by this memory
system.mem_ctrls0.num_reads::switch_cpus_1.inst           54                       # Number of read requests responded to by this memory
system.mem_ctrls0.num_reads::switch_cpus_1.data       639179                       # Number of read requests responded to by this memory
system.mem_ctrls0.num_reads::total            4284977                       # Number of read requests responded to by this memory
system.mem_ctrls0.num_writes::writebacks      1370287                       # Number of write requests responded to by this memory
system.mem_ctrls0.num_writes::total           1370287                       # Number of write requests responded to by this memory
system.mem_ctrls0.bw_read::cpu.inst                72                       # Total read bandwidth from this memory (bytes/s)
system.mem_ctrls0.bw_read::cpu.data               108                       # Total read bandwidth from this memory (bytes/s)
system.mem_ctrls0.bw_read::switch_cpus.inst        24718                       # Total read bandwidth from this memory (bytes/s)
system.mem_ctrls0.bw_read::switch_cpus.data    131146492                       # Total read bandwidth from this memory (bytes/s)
system.mem_ctrls0.bw_read::switch_cpus_1.inst         1943                       # Total read bandwidth from this memory (bytes/s)
system.mem_ctrls0.bw_read::switch_cpus_1.data     22997226                       # Total read bandwidth from this memory (bytes/s)
system.mem_ctrls0.bw_read::total            154170559                       # Total read bandwidth from this memory (bytes/s)
system.mem_ctrls0.bw_inst_read::cpu.inst           72                       # Instruction read bandwidth from this memory (bytes/s)
system.mem_ctrls0.bw_inst_read::switch_cpus.inst        24718                       # Instruction read bandwidth from this memory (bytes/s)
system.mem_ctrls0.bw_inst_read::switch_cpus_1.inst         1943                       # Instruction read bandwidth from this memory (bytes/s)
system.mem_ctrls0.bw_inst_read::total           26733                       # Instruction read bandwidth from this memory (bytes/s)
system.mem_ctrls0.bw_write::writebacks       49301994                       # Write bandwidth from this memory (bytes/s)
system.mem_ctrls0.bw_write::total            49301994                       # Write bandwidth from this memory (bytes/s)
system.mem_ctrls0.bw_total::writebacks       49301994                       # Total bandwidth to/from this memory (bytes/s)
system.mem_ctrls0.bw_total::cpu.inst               72                       # Total bandwidth to/from this memory (bytes/s)
system.mem_ctrls0.bw_total::cpu.data              108                       # Total bandwidth to/from this memory (bytes/s)
system.mem_ctrls0.bw_total::switch_cpus.inst        24718                       # Total bandwidth to/from this memory (bytes/s)
system.mem_ctrls0.bw_total::switch_cpus.data    131146492                       # Total bandwidth to/from this memory (bytes/s)
system.mem_ctrls0.bw_total::switch_cpus_1.inst         1943                       # Total bandwidth to/from this memory (bytes/s)
system.mem_ctrls0.bw_total::switch_cpus_1.data     22997226                       # Total bandwidth to/from this memory (bytes/s)
system.mem_ctrls0.bw_total::total           203472553                       # Total bandwidth to/from this memory (bytes/s)
system.mem_ctrls0.readReqs                    4284979                       # Number of read requests accepted
system.mem_ctrls0.writeReqs                   1370287                       # Number of write requests accepted
system.mem_ctrls0.readBursts                  4284979                       # Number of DRAM read bursts, including those serviced by the write queue
system.mem_ctrls0.writeBursts                 1370287                       # Number of DRAM write bursts, including those merged in the write queue
system.mem_ctrls0.bytesReadDRAM             274204928                       # Total number of bytes read from DRAM
system.mem_ctrls0.bytesReadWrQ                  33728                       # Total number of bytes read from write queue
system.mem_ctrls0.bytesWritten               87696512                       # Total number of bytes written to DRAM
system.mem_ctrls0.bytesReadSys              274238656                       # Total read bytes from the system interface side
system.mem_ctrls0.bytesWrittenSys            87698368                       # Total written bytes from the system interface side
system.mem_ctrls0.servicedByWrQ                   527                       # Number of DRAM read bursts serviced by the write queue
system.mem_ctrls0.mergedWrBursts                    0                       # Number of DRAM write bursts merged with an existing one
system.mem_ctrls0.neitherReadNorWriteReqs            0                       # Number of requests that are neither read nor write
system.mem_ctrls0.perBankRdBursts::0           273324                       # Per bank write bursts
system.mem_ctrls0.perBankRdBursts::1           270150                       # Per bank write bursts
system.mem_ctrls0.perBankRdBursts::2           267259                       # Per bank write bursts
system.mem_ctrls0.perBankRdBursts::3           267749                       # Per bank write bursts
system.mem_ctrls0.perBankRdBursts::4           267353                       # Per bank write bursts
system.mem_ctrls0.perBankRdBursts::5           269570                       # Per bank write bursts
system.mem_ctrls0.perBankRdBursts::6           269389                       # Per bank write bursts
system.mem_ctrls0.perBankRdBursts::7           270316                       # Per bank write bursts
system.mem_ctrls0.perBankRdBursts::8           271878                       # Per bank write bursts
system.mem_ctrls0.perBankRdBursts::9           269339                       # Per bank write bursts
system.mem_ctrls0.perBankRdBursts::10          263856                       # Per bank write bursts
system.mem_ctrls0.perBankRdBursts::11          260808                       # Per bank write bursts
system.mem_ctrls0.perBankRdBursts::12          260063                       # Per bank write bursts
system.mem_ctrls0.perBankRdBursts::13          264491                       # Per bank write bursts
system.mem_ctrls0.perBankRdBursts::14          269218                       # Per bank write bursts
system.mem_ctrls0.perBankRdBursts::15          269689                       # Per bank write bursts
system.mem_ctrls0.perBankWrBursts::0            88214                       # Per bank write bursts
system.mem_ctrls0.perBankWrBursts::1            86751                       # Per bank write bursts
system.mem_ctrls0.perBankWrBursts::2            86006                       # Per bank write bursts
system.mem_ctrls0.perBankWrBursts::3            87260                       # Per bank write bursts
system.mem_ctrls0.perBankWrBursts::4            87808                       # Per bank write bursts
system.mem_ctrls0.perBankWrBursts::5            87802                       # Per bank write bursts
system.mem_ctrls0.perBankWrBursts::6            85133                       # Per bank write bursts
system.mem_ctrls0.perBankWrBursts::7            84487                       # Per bank write bursts
system.mem_ctrls0.perBankWrBursts::8            84965                       # Per bank write bursts
system.mem_ctrls0.perBankWrBursts::9            85342                       # Per bank write bursts
system.mem_ctrls0.perBankWrBursts::10           84621                       # Per bank write bursts
system.mem_ctrls0.perBankWrBursts::11           83404                       # Per bank write bursts
system.mem_ctrls0.perBankWrBursts::12           82455                       # Per bank write bursts
system.mem_ctrls0.perBankWrBursts::13           83490                       # Per bank write bursts
system.mem_ctrls0.perBankWrBursts::14           86018                       # Per bank write bursts
system.mem_ctrls0.perBankWrBursts::15           86502                       # Per bank write bursts
system.mem_ctrls0.numRdRetry                        0                       # Number of times read queue was full causing retry
system.mem_ctrls0.numWrRetry                        0                       # Number of times write queue was full causing retry
system.mem_ctrls0.totGap                 1778799485268                       # Total gap between requests
system.mem_ctrls0.readPktSize::0                    0                       # Read request sizes (log2)
system.mem_ctrls0.readPktSize::1                    0                       # Read request sizes (log2)
system.mem_ctrls0.readPktSize::2                    0                       # Read request sizes (log2)
system.mem_ctrls0.readPktSize::3                    0                       # Read request sizes (log2)
system.mem_ctrls0.readPktSize::4                    0                       # Read request sizes (log2)
system.mem_ctrls0.readPktSize::5                    0                       # Read request sizes (log2)
system.mem_ctrls0.readPktSize::6              4284979                       # Read request sizes (log2)
system.mem_ctrls0.writePktSize::0                   0                       # Write request sizes (log2)
system.mem_ctrls0.writePktSize::1                   0                       # Write request sizes (log2)
system.mem_ctrls0.writePktSize::2                   0                       # Write request sizes (log2)
system.mem_ctrls0.writePktSize::3                   0                       # Write request sizes (log2)
system.mem_ctrls0.writePktSize::4                   0                       # Write request sizes (log2)
system.mem_ctrls0.writePktSize::5                   0                       # Write request sizes (log2)
system.mem_ctrls0.writePktSize::6             1370287                       # Write request sizes (log2)
system.mem_ctrls0.rdQLenPdf::0                4087930                       # What read queue length does an incoming req see
system.mem_ctrls0.rdQLenPdf::1                 156903                       # What read queue length does an incoming req see
system.mem_ctrls0.rdQLenPdf::2                  36817                       # What read queue length does an incoming req see
system.mem_ctrls0.rdQLenPdf::3                   2802                       # What read queue length does an incoming req see
system.mem_ctrls0.rdQLenPdf::4                      0                       # What read queue length does an incoming req see
system.mem_ctrls0.rdQLenPdf::5                      0                       # What read queue length does an incoming req see
system.mem_ctrls0.rdQLenPdf::6                      0                       # What read queue length does an incoming req see
system.mem_ctrls0.rdQLenPdf::7                      0                       # What read queue length does an incoming req see
system.mem_ctrls0.rdQLenPdf::8                      0                       # What read queue length does an incoming req see
system.mem_ctrls0.rdQLenPdf::9                      0                       # What read queue length does an incoming req see
system.mem_ctrls0.rdQLenPdf::10                     0                       # What read queue length does an incoming req see
system.mem_ctrls0.rdQLenPdf::11                     0                       # What read queue length does an incoming req see
system.mem_ctrls0.rdQLenPdf::12                     0                       # What read queue length does an incoming req see
system.mem_ctrls0.rdQLenPdf::13                     0                       # What read queue length does an incoming req see
system.mem_ctrls0.rdQLenPdf::14                     0                       # What read queue length does an incoming req see
system.mem_ctrls0.rdQLenPdf::15                     0                       # What read queue length does an incoming req see
system.mem_ctrls0.rdQLenPdf::16                     0                       # What read queue length does an incoming req see
system.mem_ctrls0.rdQLenPdf::17                     0                       # What read queue length does an incoming req see
system.mem_ctrls0.rdQLenPdf::18                     0                       # What read queue length does an incoming req see
system.mem_ctrls0.rdQLenPdf::19                     0                       # What read queue length does an incoming req see
system.mem_ctrls0.rdQLenPdf::20                     0                       # What read queue length does an incoming req see
system.mem_ctrls0.rdQLenPdf::21                     0                       # What read queue length does an incoming req see
system.mem_ctrls0.rdQLenPdf::22                     0                       # What read queue length does an incoming req see
system.mem_ctrls0.rdQLenPdf::23                     0                       # What read queue length does an incoming req see
system.mem_ctrls0.rdQLenPdf::24                     0                       # What read queue length does an incoming req see
system.mem_ctrls0.rdQLenPdf::25                     0                       # What read queue length does an incoming req see
system.mem_ctrls0.rdQLenPdf::26                     0                       # What read queue length does an incoming req see
system.mem_ctrls0.rdQLenPdf::27                     0                       # What read queue length does an incoming req see
system.mem_ctrls0.rdQLenPdf::28                     0                       # What read queue length does an incoming req see
system.mem_ctrls0.rdQLenPdf::29                     0                       # What read queue length does an incoming req see
system.mem_ctrls0.rdQLenPdf::30                     0                       # What read queue length does an incoming req see
system.mem_ctrls0.rdQLenPdf::31                     0                       # What read queue length does an incoming req see
system.mem_ctrls0.wrQLenPdf::0                      2                       # What write queue length does an incoming req see
system.mem_ctrls0.wrQLenPdf::1                      2                       # What write queue length does an incoming req see
system.mem_ctrls0.wrQLenPdf::2                      2                       # What write queue length does an incoming req see
system.mem_ctrls0.wrQLenPdf::3                      2                       # What write queue length does an incoming req see
system.mem_ctrls0.wrQLenPdf::4                      2                       # What write queue length does an incoming req see
system.mem_ctrls0.wrQLenPdf::5                      2                       # What write queue length does an incoming req see
system.mem_ctrls0.wrQLenPdf::6                      2                       # What write queue length does an incoming req see
system.mem_ctrls0.wrQLenPdf::7                      2                       # What write queue length does an incoming req see
system.mem_ctrls0.wrQLenPdf::8                      2                       # What write queue length does an incoming req see
system.mem_ctrls0.wrQLenPdf::9                      2                       # What write queue length does an incoming req see
system.mem_ctrls0.wrQLenPdf::10                     2                       # What write queue length does an incoming req see
system.mem_ctrls0.wrQLenPdf::11                     2                       # What write queue length does an incoming req see
system.mem_ctrls0.wrQLenPdf::12                     2                       # What write queue length does an incoming req see
system.mem_ctrls0.wrQLenPdf::13                     2                       # What write queue length does an incoming req see
system.mem_ctrls0.wrQLenPdf::14                     2                       # What write queue length does an incoming req see
system.mem_ctrls0.wrQLenPdf::15                 41392                       # What write queue length does an incoming req see
system.mem_ctrls0.wrQLenPdf::16                 43335                       # What write queue length does an incoming req see
system.mem_ctrls0.wrQLenPdf::17                 75765                       # What write queue length does an incoming req see
system.mem_ctrls0.wrQLenPdf::18                 79762                       # What write queue length does an incoming req see
system.mem_ctrls0.wrQLenPdf::19                 80499                       # What write queue length does an incoming req see
system.mem_ctrls0.wrQLenPdf::20                 80729                       # What write queue length does an incoming req see
system.mem_ctrls0.wrQLenPdf::21                 80650                       # What write queue length does an incoming req see
system.mem_ctrls0.wrQLenPdf::22                 80663                       # What write queue length does an incoming req see
system.mem_ctrls0.wrQLenPdf::23                 80682                       # What write queue length does an incoming req see
system.mem_ctrls0.wrQLenPdf::24                 80731                       # What write queue length does an incoming req see
system.mem_ctrls0.wrQLenPdf::25                 80720                       # What write queue length does an incoming req see
system.mem_ctrls0.wrQLenPdf::26                 80757                       # What write queue length does an incoming req see
system.mem_ctrls0.wrQLenPdf::27                 80767                       # What write queue length does an incoming req see
system.mem_ctrls0.wrQLenPdf::28                 81059                       # What write queue length does an incoming req see
system.mem_ctrls0.wrQLenPdf::29                 81327                       # What write queue length does an incoming req see
system.mem_ctrls0.wrQLenPdf::30                 80806                       # What write queue length does an incoming req see
system.mem_ctrls0.wrQLenPdf::31                 80306                       # What write queue length does an incoming req see
system.mem_ctrls0.wrQLenPdf::32                 80187                       # What write queue length does an incoming req see
system.mem_ctrls0.wrQLenPdf::33                   103                       # What write queue length does an incoming req see
system.mem_ctrls0.wrQLenPdf::34                     9                       # What write queue length does an incoming req see
system.mem_ctrls0.wrQLenPdf::35                     6                       # What write queue length does an incoming req see
system.mem_ctrls0.wrQLenPdf::36                     2                       # What write queue length does an incoming req see
system.mem_ctrls0.wrQLenPdf::37                     0                       # What write queue length does an incoming req see
system.mem_ctrls0.wrQLenPdf::38                     0                       # What write queue length does an incoming req see
system.mem_ctrls0.wrQLenPdf::39                     0                       # What write queue length does an incoming req see
system.mem_ctrls0.wrQLenPdf::40                     0                       # What write queue length does an incoming req see
system.mem_ctrls0.wrQLenPdf::41                     0                       # What write queue length does an incoming req see
system.mem_ctrls0.wrQLenPdf::42                     0                       # What write queue length does an incoming req see
system.mem_ctrls0.wrQLenPdf::43                     0                       # What write queue length does an incoming req see
system.mem_ctrls0.wrQLenPdf::44                     0                       # What write queue length does an incoming req see
system.mem_ctrls0.wrQLenPdf::45                     0                       # What write queue length does an incoming req see
system.mem_ctrls0.wrQLenPdf::46                     0                       # What write queue length does an incoming req see
system.mem_ctrls0.wrQLenPdf::47                     0                       # What write queue length does an incoming req see
system.mem_ctrls0.wrQLenPdf::48                     0                       # What write queue length does an incoming req see
system.mem_ctrls0.wrQLenPdf::49                     0                       # What write queue length does an incoming req see
system.mem_ctrls0.wrQLenPdf::50                     0                       # What write queue length does an incoming req see
system.mem_ctrls0.wrQLenPdf::51                     0                       # What write queue length does an incoming req see
system.mem_ctrls0.wrQLenPdf::52                     0                       # What write queue length does an incoming req see
system.mem_ctrls0.wrQLenPdf::53                     0                       # What write queue length does an incoming req see
system.mem_ctrls0.wrQLenPdf::54                     0                       # What write queue length does an incoming req see
system.mem_ctrls0.wrQLenPdf::55                     0                       # What write queue length does an incoming req see
system.mem_ctrls0.wrQLenPdf::56                     0                       # What write queue length does an incoming req see
system.mem_ctrls0.wrQLenPdf::57                     0                       # What write queue length does an incoming req see
system.mem_ctrls0.wrQLenPdf::58                     0                       # What write queue length does an incoming req see
system.mem_ctrls0.wrQLenPdf::59                     0                       # What write queue length does an incoming req see
system.mem_ctrls0.wrQLenPdf::60                     0                       # What write queue length does an incoming req see
system.mem_ctrls0.wrQLenPdf::61                     0                       # What write queue length does an incoming req see
system.mem_ctrls0.wrQLenPdf::62                     0                       # What write queue length does an incoming req see
system.mem_ctrls0.wrQLenPdf::63                     0                       # What write queue length does an incoming req see
system.mem_ctrls0.bytesPerActivate::samples      2443123                       # Bytes accessed per row activation
system.mem_ctrls0.bytesPerActivate::mean   148.129672                       # Bytes accessed per row activation
system.mem_ctrls0.bytesPerActivate::gmean   109.989891                       # Bytes accessed per row activation
system.mem_ctrls0.bytesPerActivate::stdev   152.629699                       # Bytes accessed per row activation
system.mem_ctrls0.bytesPerActivate::0-127      1271262     52.03%     52.03% # Bytes accessed per row activation
system.mem_ctrls0.bytesPerActivate::128-255       808130     33.08%     85.11% # Bytes accessed per row activation
system.mem_ctrls0.bytesPerActivate::256-383       145461      5.95%     91.07% # Bytes accessed per row activation
system.mem_ctrls0.bytesPerActivate::384-511        75410      3.09%     94.15% # Bytes accessed per row activation
system.mem_ctrls0.bytesPerActivate::512-639        69800      2.86%     97.01% # Bytes accessed per row activation
system.mem_ctrls0.bytesPerActivate::640-767        31104      1.27%     98.28% # Bytes accessed per row activation
system.mem_ctrls0.bytesPerActivate::768-895        24961      1.02%     99.30% # Bytes accessed per row activation
system.mem_ctrls0.bytesPerActivate::896-1023         8931      0.37%     99.67% # Bytes accessed per row activation
system.mem_ctrls0.bytesPerActivate::1024-1151         8064      0.33%    100.00% # Bytes accessed per row activation
system.mem_ctrls0.bytesPerActivate::total      2443123                       # Bytes accessed per row activation
system.mem_ctrls0.rdPerTurnAround::samples        80116                       # Reads before turning the bus around for writes
system.mem_ctrls0.rdPerTurnAround::mean     53.477720                       # Reads before turning the bus around for writes
system.mem_ctrls0.rdPerTurnAround::gmean    47.855069                       # Reads before turning the bus around for writes
system.mem_ctrls0.rdPerTurnAround::stdev   114.491475                       # Reads before turning the bus around for writes
system.mem_ctrls0.rdPerTurnAround::0-1023        80115    100.00%    100.00% # Reads before turning the bus around for writes
system.mem_ctrls0.rdPerTurnAround::30720-31743            1      0.00%    100.00% # Reads before turning the bus around for writes
system.mem_ctrls0.rdPerTurnAround::total        80116                       # Reads before turning the bus around for writes
system.mem_ctrls0.wrPerTurnAround::samples        80116                       # Writes before turning the bus around for reads
system.mem_ctrls0.wrPerTurnAround::mean     17.103425                       # Writes before turning the bus around for reads
system.mem_ctrls0.wrPerTurnAround::gmean    17.070786                       # Writes before turning the bus around for reads
system.mem_ctrls0.wrPerTurnAround::stdev     1.057358                       # Writes before turning the bus around for reads
system.mem_ctrls0.wrPerTurnAround::16           37028     46.22%     46.22% # Writes before turning the bus around for reads
system.mem_ctrls0.wrPerTurnAround::17            1455      1.82%     48.03% # Writes before turning the bus around for reads
system.mem_ctrls0.wrPerTurnAround::18           38273     47.77%     95.81% # Writes before turning the bus around for reads
system.mem_ctrls0.wrPerTurnAround::19            3078      3.84%     99.65% # Writes before turning the bus around for reads
system.mem_ctrls0.wrPerTurnAround::20             244      0.30%     99.95% # Writes before turning the bus around for reads
system.mem_ctrls0.wrPerTurnAround::21              37      0.05%    100.00% # Writes before turning the bus around for reads
system.mem_ctrls0.wrPerTurnAround::22               1      0.00%    100.00% # Writes before turning the bus around for reads
system.mem_ctrls0.wrPerTurnAround::total        80116                       # Writes before turning the bus around for reads
system.mem_ctrls0.totQLat                 93128976080                       # Total ticks spent queuing
system.mem_ctrls0.totMemAccLat           173462451080                       # Total ticks spent from burst creation until serviced by the DRAM
system.mem_ctrls0.totBusLat               21422260000                       # Total ticks spent in databus transfers
system.mem_ctrls0.avgQLat                    21736.50                       # Average queueing delay per DRAM burst
system.mem_ctrls0.avgBusLat                   5000.00                       # Average bus latency per DRAM burst
system.mem_ctrls0.avgMemAccLat               40486.50                       # Average memory access latency per DRAM burst
system.mem_ctrls0.avgRdBW                      154.15                       # Average DRAM read bandwidth in MiByte/s
system.mem_ctrls0.avgWrBW                       49.30                       # Average achieved write bandwidth in MiByte/s
system.mem_ctrls0.avgRdBWSys                   154.17                       # Average system read bandwidth in MiByte/s
system.mem_ctrls0.avgWrBWSys                    49.30                       # Average system write bandwidth in MiByte/s
system.mem_ctrls0.peakBW                     12800.00                       # Theoretical peak bandwidth in MiByte/s
system.mem_ctrls0.busUtil                        1.59                       # Data bus utilization in percentage
system.mem_ctrls0.busUtilRead                    1.20                       # Data bus utilization in percentage for reads
system.mem_ctrls0.busUtilWrite                   0.39                       # Data bus utilization in percentage for writes
system.mem_ctrls0.avgRdQLen                      1.02                       # Average read queue length when enqueuing
system.mem_ctrls0.avgWrQLen                     24.56                       # Average write queue length when enqueuing
system.mem_ctrls0.readRowHits                 2690356                       # Number of row buffer hits during reads
system.mem_ctrls0.writeRowHits                 521220                       # Number of row buffer hits during writes
system.mem_ctrls0.readRowHitRate                62.79                       # Row buffer hit rate for reads
system.mem_ctrls0.writeRowHitRate               38.04                       # Row buffer hit rate for writes
system.mem_ctrls0.avgGap                    314538.61                       # Average gap between requests
system.mem_ctrls0.pageHitRate                   56.79                       # Row buffer hit rate, read and write combined
system.mem_ctrls0_0.actEnergy              8781828720                       # Energy for activate commands per rank (pJ)
system.mem_ctrls0_0.preEnergy              4667626095                       # Energy for precharge commands per rank (pJ)
system.mem_ctrls0_0.readEnergy            15387485400                       # Energy for read commands per rank (pJ)
system.mem_ctrls0_0.writeEnergy            3619866420                       # Energy for write commands per rank (pJ)
system.mem_ctrls0_0.refreshEnergy        138569358720.000031                       # Energy for refresh commands per rank (pJ)
system.mem_ctrls0_0.actBackEnergy         90878048040                       # Energy for active background per rank (pJ)
system.mem_ctrls0_0.preBackEnergy          5021084640                       # Energy for precharge background per rank (pJ)
system.mem_ctrls0_0.actPowerDownEnergy   530380033590                       # Energy for active power-down per rank (pJ)
system.mem_ctrls0_0.prePowerDownEnergy   105895146240                       # Energy for precharge power-down per rank (pJ)
system.mem_ctrls0_0.selfRefreshEnergy     38552839470                       # Energy for self refresh per rank (pJ)
system.mem_ctrls0_0.totalEnergy          941788316205                       # Total energy per rank (pJ)
system.mem_ctrls0_0.averagePower           529.451608                       # Core power per rank (mW)
system.mem_ctrls0_0.totalIdleTime        1566357807371                       # Total Idle time Per DRAM Rank
system.mem_ctrls0_0.memoryStateTime::IDLE   5245177124                       # Time in different power states
system.mem_ctrls0_0.memoryStateTime::REF  58706840000                       # Time in different power states
system.mem_ctrls0_0.memoryStateTime::SREF 127469417072                       # Time in different power states
system.mem_ctrls0_0.memoryStateTime::PRE_PDN 275767400140                       # Time in different power states
system.mem_ctrls0_0.memoryStateTime::ACT 148489773993                       # Time in different power states
system.mem_ctrls0_0.memoryStateTime::ACT_PDN 1163120990159                       # Time in different power states
system.mem_ctrls0_1.actEnergy              8662148040                       # Energy for activate commands per rank (pJ)
system.mem_ctrls0_1.preEnergy              4604025690                       # Energy for precharge commands per rank (pJ)
system.mem_ctrls0_1.readEnergy            15203494740                       # Energy for read commands per rank (pJ)
system.mem_ctrls0_1.writeEnergy            3532880340                       # Energy for write commands per rank (pJ)
system.mem_ctrls0_1.refreshEnergy        138204877200.000031                       # Energy for refresh commands per rank (pJ)
system.mem_ctrls0_1.actBackEnergy         91046259600                       # Energy for active background per rank (pJ)
system.mem_ctrls0_1.preBackEnergy          5056858080                       # Energy for precharge background per rank (pJ)
system.mem_ctrls0_1.actPowerDownEnergy   525671316600                       # Energy for active power-down per rank (pJ)
system.mem_ctrls0_1.prePowerDownEnergy   106551852000                       # Energy for precharge power-down per rank (pJ)
system.mem_ctrls0_1.selfRefreshEnergy     40778894625                       # Energy for self refresh per rank (pJ)
system.mem_ctrls0_1.totalEnergy          939347541135                       # Total energy per rank (pJ)
system.mem_ctrls0_1.averagePower           528.079459                       # Core power per rank (mW)
system.mem_ctrls0_1.totalIdleTime        1565894776921                       # Total Idle time Per DRAM Rank
system.mem_ctrls0_1.memoryStateTime::IDLE   5398803944                       # Time in different power states
system.mem_ctrls0_1.memoryStateTime::REF  58555864000                       # Time in different power states
system.mem_ctrls0_1.memoryStateTime::SREF 135623349887                       # Time in different power states
system.mem_ctrls0_1.memoryStateTime::PRE_PDN 277479415496                       # Time in different power states
system.mem_ctrls0_1.memoryStateTime::ACT 148950153623                       # Time in different power states
system.mem_ctrls0_1.memoryStateTime::ACT_PDN 1152792011538                       # Time in different power states
system.mem_ctrls1.pwrStateResidencyTicks::UNDEFINED 75048953399190                       # Cumulative time (in ticks) in various power states
system.mem_ctrls1.bytes_read::cpu.inst            128                       # Number of bytes read from this memory
system.mem_ctrls1.bytes_read::cpu.data            192                       # Number of bytes read from this memory
system.mem_ctrls1.bytes_read::switch_cpus.inst        43840                       # Number of bytes read from this memory
system.mem_ctrls1.bytes_read::switch_cpus.data    233244992                       # Number of bytes read from this memory
system.mem_ctrls1.bytes_read::switch_cpus_1.inst         3200                       # Number of bytes read from this memory
system.mem_ctrls1.bytes_read::switch_cpus_1.data     40907072                       # Number of bytes read from this memory
system.mem_ctrls1.bytes_read::total         274199424                       # Number of bytes read from this memory
system.mem_ctrls1.bytes_inst_read::cpu.inst          128                       # Number of instructions bytes read from this memory
system.mem_ctrls1.bytes_inst_read::switch_cpus.inst        43840                       # Number of instructions bytes read from this memory
system.mem_ctrls1.bytes_inst_read::switch_cpus_1.inst         3200                       # Number of instructions bytes read from this memory
system.mem_ctrls1.bytes_inst_read::total        47168                       # Number of instructions bytes read from this memory
system.mem_ctrls1.bytes_written::writebacks     87686400                       # Number of bytes written to this memory
system.mem_ctrls1.bytes_written::total       87686400                       # Number of bytes written to this memory
system.mem_ctrls1.num_reads::cpu.inst               2                       # Number of read requests responded to by this memory
system.mem_ctrls1.num_reads::cpu.data               3                       # Number of read requests responded to by this memory
system.mem_ctrls1.num_reads::switch_cpus.inst          685                       # Number of read requests responded to by this memory
system.mem_ctrls1.num_reads::switch_cpus.data      3644453                       # Number of read requests responded to by this memory
system.mem_ctrls1.num_reads::switch_cpus_1.inst           50                       # Number of read requests responded to by this memory
system.mem_ctrls1.num_reads::switch_cpus_1.data       639173                       # Number of read requests responded to by this memory
system.mem_ctrls1.num_reads::total            4284366                       # Number of read requests responded to by this memory
system.mem_ctrls1.num_writes::writebacks      1370100                       # Number of write requests responded to by this memory
system.mem_ctrls1.num_writes::total           1370100                       # Number of write requests responded to by this memory
system.mem_ctrls1.bw_read::cpu.inst                72                       # Total read bandwidth from this memory (bytes/s)
system.mem_ctrls1.bw_read::cpu.data               108                       # Total read bandwidth from this memory (bytes/s)
system.mem_ctrls1.bw_read::switch_cpus.inst        24646                       # Total read bandwidth from this memory (bytes/s)
system.mem_ctrls1.bw_read::switch_cpus.data    131124941                       # Total read bandwidth from this memory (bytes/s)
system.mem_ctrls1.bw_read::switch_cpus_1.inst         1799                       # Total read bandwidth from this memory (bytes/s)
system.mem_ctrls1.bw_read::switch_cpus_1.data     22997010                       # Total read bandwidth from this memory (bytes/s)
system.mem_ctrls1.bw_read::total            154148575                       # Total read bandwidth from this memory (bytes/s)
system.mem_ctrls1.bw_inst_read::cpu.inst           72                       # Instruction read bandwidth from this memory (bytes/s)
system.mem_ctrls1.bw_inst_read::switch_cpus.inst        24646                       # Instruction read bandwidth from this memory (bytes/s)
system.mem_ctrls1.bw_inst_read::switch_cpus_1.inst         1799                       # Instruction read bandwidth from this memory (bytes/s)
system.mem_ctrls1.bw_inst_read::total           26517                       # Instruction read bandwidth from this memory (bytes/s)
system.mem_ctrls1.bw_write::writebacks       49295266                       # Write bandwidth from this memory (bytes/s)
system.mem_ctrls1.bw_write::total            49295266                       # Write bandwidth from this memory (bytes/s)
system.mem_ctrls1.bw_total::writebacks       49295266                       # Total bandwidth to/from this memory (bytes/s)
system.mem_ctrls1.bw_total::cpu.inst               72                       # Total bandwidth to/from this memory (bytes/s)
system.mem_ctrls1.bw_total::cpu.data              108                       # Total bandwidth to/from this memory (bytes/s)
system.mem_ctrls1.bw_total::switch_cpus.inst        24646                       # Total bandwidth to/from this memory (bytes/s)
system.mem_ctrls1.bw_total::switch_cpus.data    131124941                       # Total bandwidth to/from this memory (bytes/s)
system.mem_ctrls1.bw_total::switch_cpus_1.inst         1799                       # Total bandwidth to/from this memory (bytes/s)
system.mem_ctrls1.bw_total::switch_cpus_1.data     22997010                       # Total bandwidth to/from this memory (bytes/s)
system.mem_ctrls1.bw_total::total           203443842                       # Total bandwidth to/from this memory (bytes/s)
system.mem_ctrls1.readReqs                    4284366                       # Number of read requests accepted
system.mem_ctrls1.writeReqs                   1370100                       # Number of write requests accepted
system.mem_ctrls1.readBursts                  4284366                       # Number of DRAM read bursts, including those serviced by the write queue
system.mem_ctrls1.writeBursts                 1370100                       # Number of DRAM write bursts, including those merged in the write queue
system.mem_ctrls1.bytesReadDRAM             274164224                       # Total number of bytes read from DRAM
system.mem_ctrls1.bytesReadWrQ                  35200                       # Total number of bytes read from write queue
system.mem_ctrls1.bytesWritten               87684672                       # Total number of bytes written to DRAM
system.mem_ctrls1.bytesReadSys              274199424                       # Total read bytes from the system interface side
system.mem_ctrls1.bytesWrittenSys            87686400                       # Total written bytes from the system interface side
system.mem_ctrls1.servicedByWrQ                   550                       # Number of DRAM read bursts serviced by the write queue
system.mem_ctrls1.mergedWrBursts                    0                       # Number of DRAM write bursts merged with an existing one
system.mem_ctrls1.neitherReadNorWriteReqs            0                       # Number of requests that are neither read nor write
system.mem_ctrls1.perBankRdBursts::0           273304                       # Per bank write bursts
system.mem_ctrls1.perBankRdBursts::1           270266                       # Per bank write bursts
system.mem_ctrls1.perBankRdBursts::2           267286                       # Per bank write bursts
system.mem_ctrls1.perBankRdBursts::3           267722                       # Per bank write bursts
system.mem_ctrls1.perBankRdBursts::4           267372                       # Per bank write bursts
system.mem_ctrls1.perBankRdBursts::5           269238                       # Per bank write bursts
system.mem_ctrls1.perBankRdBursts::6           269223                       # Per bank write bursts
system.mem_ctrls1.perBankRdBursts::7           270427                       # Per bank write bursts
system.mem_ctrls1.perBankRdBursts::8           272025                       # Per bank write bursts
system.mem_ctrls1.perBankRdBursts::9           269195                       # Per bank write bursts
system.mem_ctrls1.perBankRdBursts::10          264002                       # Per bank write bursts
system.mem_ctrls1.perBankRdBursts::11          260871                       # Per bank write bursts
system.mem_ctrls1.perBankRdBursts::12          259879                       # Per bank write bursts
system.mem_ctrls1.perBankRdBursts::13          264151                       # Per bank write bursts
system.mem_ctrls1.perBankRdBursts::14          269341                       # Per bank write bursts
system.mem_ctrls1.perBankRdBursts::15          269514                       # Per bank write bursts
system.mem_ctrls1.perBankWrBursts::0            88157                       # Per bank write bursts
system.mem_ctrls1.perBankWrBursts::1            86731                       # Per bank write bursts
system.mem_ctrls1.perBankWrBursts::2            86151                       # Per bank write bursts
system.mem_ctrls1.perBankWrBursts::3            87160                       # Per bank write bursts
system.mem_ctrls1.perBankWrBursts::4            87727                       # Per bank write bursts
system.mem_ctrls1.perBankWrBursts::5            87860                       # Per bank write bursts
system.mem_ctrls1.perBankWrBursts::6            85148                       # Per bank write bursts
system.mem_ctrls1.perBankWrBursts::7            84489                       # Per bank write bursts
system.mem_ctrls1.perBankWrBursts::8            85017                       # Per bank write bursts
system.mem_ctrls1.perBankWrBursts::9            85306                       # Per bank write bursts
system.mem_ctrls1.perBankWrBursts::10           84576                       # Per bank write bursts
system.mem_ctrls1.perBankWrBursts::11           83407                       # Per bank write bursts
system.mem_ctrls1.perBankWrBursts::12           82358                       # Per bank write bursts
system.mem_ctrls1.perBankWrBursts::13           83406                       # Per bank write bursts
system.mem_ctrls1.perBankWrBursts::14           86134                       # Per bank write bursts
system.mem_ctrls1.perBankWrBursts::15           86446                       # Per bank write bursts
system.mem_ctrls1.numRdRetry                        0                       # Number of times read queue was full causing retry
system.mem_ctrls1.numWrRetry                        0                       # Number of times write queue was full causing retry
system.mem_ctrls1.totGap                 1778799553200                       # Total gap between requests
system.mem_ctrls1.readPktSize::0                    0                       # Read request sizes (log2)
system.mem_ctrls1.readPktSize::1                    0                       # Read request sizes (log2)
system.mem_ctrls1.readPktSize::2                    0                       # Read request sizes (log2)
system.mem_ctrls1.readPktSize::3                    0                       # Read request sizes (log2)
system.mem_ctrls1.readPktSize::4                    0                       # Read request sizes (log2)
system.mem_ctrls1.readPktSize::5                    0                       # Read request sizes (log2)
system.mem_ctrls1.readPktSize::6              4284366                       # Read request sizes (log2)
system.mem_ctrls1.writePktSize::0                   0                       # Write request sizes (log2)
system.mem_ctrls1.writePktSize::1                   0                       # Write request sizes (log2)
system.mem_ctrls1.writePktSize::2                   0                       # Write request sizes (log2)
system.mem_ctrls1.writePktSize::3                   0                       # Write request sizes (log2)
system.mem_ctrls1.writePktSize::4                   0                       # Write request sizes (log2)
system.mem_ctrls1.writePktSize::5                   0                       # Write request sizes (log2)
system.mem_ctrls1.writePktSize::6             1370100                       # Write request sizes (log2)
system.mem_ctrls1.rdQLenPdf::0                4087708                       # What read queue length does an incoming req see
system.mem_ctrls1.rdQLenPdf::1                 156529                       # What read queue length does an incoming req see
system.mem_ctrls1.rdQLenPdf::2                  36779                       # What read queue length does an incoming req see
system.mem_ctrls1.rdQLenPdf::3                   2799                       # What read queue length does an incoming req see
system.mem_ctrls1.rdQLenPdf::4                      1                       # What read queue length does an incoming req see
system.mem_ctrls1.rdQLenPdf::5                      0                       # What read queue length does an incoming req see
system.mem_ctrls1.rdQLenPdf::6                      0                       # What read queue length does an incoming req see
system.mem_ctrls1.rdQLenPdf::7                      0                       # What read queue length does an incoming req see
system.mem_ctrls1.rdQLenPdf::8                      0                       # What read queue length does an incoming req see
system.mem_ctrls1.rdQLenPdf::9                      0                       # What read queue length does an incoming req see
system.mem_ctrls1.rdQLenPdf::10                     0                       # What read queue length does an incoming req see
system.mem_ctrls1.rdQLenPdf::11                     0                       # What read queue length does an incoming req see
system.mem_ctrls1.rdQLenPdf::12                     0                       # What read queue length does an incoming req see
system.mem_ctrls1.rdQLenPdf::13                     0                       # What read queue length does an incoming req see
system.mem_ctrls1.rdQLenPdf::14                     0                       # What read queue length does an incoming req see
system.mem_ctrls1.rdQLenPdf::15                     0                       # What read queue length does an incoming req see
system.mem_ctrls1.rdQLenPdf::16                     0                       # What read queue length does an incoming req see
system.mem_ctrls1.rdQLenPdf::17                     0                       # What read queue length does an incoming req see
system.mem_ctrls1.rdQLenPdf::18                     0                       # What read queue length does an incoming req see
system.mem_ctrls1.rdQLenPdf::19                     0                       # What read queue length does an incoming req see
system.mem_ctrls1.rdQLenPdf::20                     0                       # What read queue length does an incoming req see
system.mem_ctrls1.rdQLenPdf::21                     0                       # What read queue length does an incoming req see
system.mem_ctrls1.rdQLenPdf::22                     0                       # What read queue length does an incoming req see
system.mem_ctrls1.rdQLenPdf::23                     0                       # What read queue length does an incoming req see
system.mem_ctrls1.rdQLenPdf::24                     0                       # What read queue length does an incoming req see
system.mem_ctrls1.rdQLenPdf::25                     0                       # What read queue length does an incoming req see
system.mem_ctrls1.rdQLenPdf::26                     0                       # What read queue length does an incoming req see
system.mem_ctrls1.rdQLenPdf::27                     0                       # What read queue length does an incoming req see
system.mem_ctrls1.rdQLenPdf::28                     0                       # What read queue length does an incoming req see
system.mem_ctrls1.rdQLenPdf::29                     0                       # What read queue length does an incoming req see
system.mem_ctrls1.rdQLenPdf::30                     0                       # What read queue length does an incoming req see
system.mem_ctrls1.rdQLenPdf::31                     0                       # What read queue length does an incoming req see
system.mem_ctrls1.wrQLenPdf::0                      2                       # What write queue length does an incoming req see
system.mem_ctrls1.wrQLenPdf::1                      2                       # What write queue length does an incoming req see
system.mem_ctrls1.wrQLenPdf::2                      2                       # What write queue length does an incoming req see
system.mem_ctrls1.wrQLenPdf::3                      2                       # What write queue length does an incoming req see
system.mem_ctrls1.wrQLenPdf::4                      2                       # What write queue length does an incoming req see
system.mem_ctrls1.wrQLenPdf::5                      2                       # What write queue length does an incoming req see
system.mem_ctrls1.wrQLenPdf::6                      2                       # What write queue length does an incoming req see
system.mem_ctrls1.wrQLenPdf::7                      2                       # What write queue length does an incoming req see
system.mem_ctrls1.wrQLenPdf::8                      2                       # What write queue length does an incoming req see
system.mem_ctrls1.wrQLenPdf::9                      2                       # What write queue length does an incoming req see
system.mem_ctrls1.wrQLenPdf::10                     2                       # What write queue length does an incoming req see
system.mem_ctrls1.wrQLenPdf::11                     2                       # What write queue length does an incoming req see
system.mem_ctrls1.wrQLenPdf::12                     2                       # What write queue length does an incoming req see
system.mem_ctrls1.wrQLenPdf::13                     2                       # What write queue length does an incoming req see
system.mem_ctrls1.wrQLenPdf::14                     2                       # What write queue length does an incoming req see
system.mem_ctrls1.wrQLenPdf::15                 41539                       # What write queue length does an incoming req see
system.mem_ctrls1.wrQLenPdf::16                 43412                       # What write queue length does an incoming req see
system.mem_ctrls1.wrQLenPdf::17                 75690                       # What write queue length does an incoming req see
system.mem_ctrls1.wrQLenPdf::18                 79752                       # What write queue length does an incoming req see
system.mem_ctrls1.wrQLenPdf::19                 80507                       # What write queue length does an incoming req see
system.mem_ctrls1.wrQLenPdf::20                 80652                       # What write queue length does an incoming req see
system.mem_ctrls1.wrQLenPdf::21                 80625                       # What write queue length does an incoming req see
system.mem_ctrls1.wrQLenPdf::22                 80639                       # What write queue length does an incoming req see
system.mem_ctrls1.wrQLenPdf::23                 80618                       # What write queue length does an incoming req see
system.mem_ctrls1.wrQLenPdf::24                 80707                       # What write queue length does an incoming req see
system.mem_ctrls1.wrQLenPdf::25                 80748                       # What write queue length does an incoming req see
system.mem_ctrls1.wrQLenPdf::26                 80777                       # What write queue length does an incoming req see
system.mem_ctrls1.wrQLenPdf::27                 80730                       # What write queue length does an incoming req see
system.mem_ctrls1.wrQLenPdf::28                 81076                       # What write queue length does an incoming req see
system.mem_ctrls1.wrQLenPdf::29                 81323                       # What write queue length does an incoming req see
system.mem_ctrls1.wrQLenPdf::30                 80739                       # What write queue length does an incoming req see
system.mem_ctrls1.wrQLenPdf::31                 80275                       # What write queue length does an incoming req see
system.mem_ctrls1.wrQLenPdf::32                 80155                       # What write queue length does an incoming req see
system.mem_ctrls1.wrQLenPdf::33                    94                       # What write queue length does an incoming req see
system.mem_ctrls1.wrQLenPdf::34                    12                       # What write queue length does an incoming req see
system.mem_ctrls1.wrQLenPdf::35                     0                       # What write queue length does an incoming req see
system.mem_ctrls1.wrQLenPdf::36                     0                       # What write queue length does an incoming req see
system.mem_ctrls1.wrQLenPdf::37                     0                       # What write queue length does an incoming req see
system.mem_ctrls1.wrQLenPdf::38                     0                       # What write queue length does an incoming req see
system.mem_ctrls1.wrQLenPdf::39                     0                       # What write queue length does an incoming req see
system.mem_ctrls1.wrQLenPdf::40                     0                       # What write queue length does an incoming req see
system.mem_ctrls1.wrQLenPdf::41                     0                       # What write queue length does an incoming req see
system.mem_ctrls1.wrQLenPdf::42                     0                       # What write queue length does an incoming req see
system.mem_ctrls1.wrQLenPdf::43                     0                       # What write queue length does an incoming req see
system.mem_ctrls1.wrQLenPdf::44                     0                       # What write queue length does an incoming req see
system.mem_ctrls1.wrQLenPdf::45                     0                       # What write queue length does an incoming req see
system.mem_ctrls1.wrQLenPdf::46                     0                       # What write queue length does an incoming req see
system.mem_ctrls1.wrQLenPdf::47                     0                       # What write queue length does an incoming req see
system.mem_ctrls1.wrQLenPdf::48                     0                       # What write queue length does an incoming req see
system.mem_ctrls1.wrQLenPdf::49                     0                       # What write queue length does an incoming req see
system.mem_ctrls1.wrQLenPdf::50                     0                       # What write queue length does an incoming req see
system.mem_ctrls1.wrQLenPdf::51                     0                       # What write queue length does an incoming req see
system.mem_ctrls1.wrQLenPdf::52                     0                       # What write queue length does an incoming req see
system.mem_ctrls1.wrQLenPdf::53                     0                       # What write queue length does an incoming req see
system.mem_ctrls1.wrQLenPdf::54                     0                       # What write queue length does an incoming req see
system.mem_ctrls1.wrQLenPdf::55                     0                       # What write queue length does an incoming req see
system.mem_ctrls1.wrQLenPdf::56                     0                       # What write queue length does an incoming req see
system.mem_ctrls1.wrQLenPdf::57                     0                       # What write queue length does an incoming req see
system.mem_ctrls1.wrQLenPdf::58                     0                       # What write queue length does an incoming req see
system.mem_ctrls1.wrQLenPdf::59                     0                       # What write queue length does an incoming req see
system.mem_ctrls1.wrQLenPdf::60                     0                       # What write queue length does an incoming req see
system.mem_ctrls1.wrQLenPdf::61                     0                       # What write queue length does an incoming req see
system.mem_ctrls1.wrQLenPdf::62                     0                       # What write queue length does an incoming req see
system.mem_ctrls1.wrQLenPdf::63                     0                       # What write queue length does an incoming req see
system.mem_ctrls1.bytesPerActivate::samples      2441230                       # Bytes accessed per row activation
system.mem_ctrls1.bytesPerActivate::mean   148.223563                       # Bytes accessed per row activation
system.mem_ctrls1.bytesPerActivate::gmean   110.020046                       # Bytes accessed per row activation
system.mem_ctrls1.bytesPerActivate::stdev   152.861108                       # Bytes accessed per row activation
system.mem_ctrls1.bytesPerActivate::0-127      1269805     52.01%     52.01% # Bytes accessed per row activation
system.mem_ctrls1.bytesPerActivate::128-255       807512     33.08%     85.09% # Bytes accessed per row activation
system.mem_ctrls1.bytesPerActivate::256-383       145421      5.96%     91.05% # Bytes accessed per row activation
system.mem_ctrls1.bytesPerActivate::384-511        75246      3.08%     94.13% # Bytes accessed per row activation
system.mem_ctrls1.bytesPerActivate::512-639        69940      2.86%     97.00% # Bytes accessed per row activation
system.mem_ctrls1.bytesPerActivate::640-767        30955      1.27%     98.27% # Bytes accessed per row activation
system.mem_ctrls1.bytesPerActivate::768-895        25154      1.03%     99.30% # Bytes accessed per row activation
system.mem_ctrls1.bytesPerActivate::896-1023         9061      0.37%     99.67% # Bytes accessed per row activation
system.mem_ctrls1.bytesPerActivate::1024-1151         8136      0.33%    100.00% # Bytes accessed per row activation
system.mem_ctrls1.bytesPerActivate::total      2441230                       # Bytes accessed per row activation
system.mem_ctrls1.rdPerTurnAround::samples        80090                       # Reads before turning the bus around for writes
system.mem_ctrls1.rdPerTurnAround::mean     53.487027                       # Reads before turning the bus around for writes
system.mem_ctrls1.rdPerTurnAround::gmean    47.864367                       # Reads before turning the bus around for writes
system.mem_ctrls1.rdPerTurnAround::stdev   114.792472                       # Reads before turning the bus around for writes
system.mem_ctrls1.rdPerTurnAround::0-1023        80089    100.00%    100.00% # Reads before turning the bus around for writes
system.mem_ctrls1.rdPerTurnAround::30720-31743            1      0.00%    100.00% # Reads before turning the bus around for writes
system.mem_ctrls1.rdPerTurnAround::total        80090                       # Reads before turning the bus around for writes
system.mem_ctrls1.wrPerTurnAround::samples        80090                       # Writes before turning the bus around for reads
system.mem_ctrls1.wrPerTurnAround::mean     17.106667                       # Writes before turning the bus around for reads
system.mem_ctrls1.wrPerTurnAround::gmean    17.074010                       # Writes before turning the bus around for reads
system.mem_ctrls1.wrPerTurnAround::stdev     1.058006                       # Writes before turning the bus around for reads
system.mem_ctrls1.wrPerTurnAround::16           36905     46.08%     46.08% # Writes before turning the bus around for reads
system.mem_ctrls1.wrPerTurnAround::17            1408      1.76%     47.84% # Writes before turning the bus around for reads
system.mem_ctrls1.wrPerTurnAround::18           38416     47.97%     95.80% # Writes before turning the bus around for reads
system.mem_ctrls1.wrPerTurnAround::19            3102      3.87%     99.68% # Writes before turning the bus around for reads
system.mem_ctrls1.wrPerTurnAround::20             225      0.28%     99.96% # Writes before turning the bus around for reads
system.mem_ctrls1.wrPerTurnAround::21              27      0.03%     99.99% # Writes before turning the bus around for reads
system.mem_ctrls1.wrPerTurnAround::22               6      0.01%    100.00% # Writes before turning the bus around for reads
system.mem_ctrls1.wrPerTurnAround::32               1      0.00%    100.00% # Writes before turning the bus around for reads
system.mem_ctrls1.wrPerTurnAround::total        80090                       # Writes before turning the bus around for reads
system.mem_ctrls1.totQLat                 92997738515                       # Total ticks spent queuing
system.mem_ctrls1.totMemAccLat           173319288515                       # Total ticks spent from burst creation until serviced by the DRAM
system.mem_ctrls1.totBusLat               21419080000                       # Total ticks spent in databus transfers
system.mem_ctrls1.avgQLat                    21709.09                       # Average queueing delay per DRAM burst
system.mem_ctrls1.avgBusLat                   5000.00                       # Average bus latency per DRAM burst
system.mem_ctrls1.avgMemAccLat               40459.09                       # Average memory access latency per DRAM burst
system.mem_ctrls1.avgRdBW                      154.13                       # Average DRAM read bandwidth in MiByte/s
system.mem_ctrls1.avgWrBW                       49.29                       # Average achieved write bandwidth in MiByte/s
system.mem_ctrls1.avgRdBWSys                   154.15                       # Average system read bandwidth in MiByte/s
system.mem_ctrls1.avgWrBWSys                    49.30                       # Average system write bandwidth in MiByte/s
system.mem_ctrls1.peakBW                     12800.00                       # Theoretical peak bandwidth in MiByte/s
system.mem_ctrls1.busUtil                        1.59                       # Data bus utilization in percentage
system.mem_ctrls1.busUtilRead                    1.20                       # Data bus utilization in percentage for reads
system.mem_ctrls1.busUtilWrite                   0.39                       # Data bus utilization in percentage for writes
system.mem_ctrls1.avgRdQLen                      1.02                       # Average read queue length when enqueuing
system.mem_ctrls1.avgWrQLen                     24.55                       # Average write queue length when enqueuing
system.mem_ctrls1.readRowHits                 2690962                       # Number of row buffer hits during reads
system.mem_ctrls1.writeRowHits                 521689                       # Number of row buffer hits during writes
system.mem_ctrls1.readRowHitRate                62.82                       # Row buffer hit rate for reads
system.mem_ctrls1.writeRowHitRate               38.08                       # Row buffer hit rate for writes
system.mem_ctrls1.avgGap                    314583.12                       # Average gap between requests
system.mem_ctrls1.pageHitRate                   56.82                       # Row buffer hit rate, read and write combined
system.mem_ctrls1_0.actEnergy              8778465780                       # Energy for activate commands per rank (pJ)
system.mem_ctrls1_0.preEnergy              4665846240                       # Energy for precharge commands per rank (pJ)
system.mem_ctrls1_0.readEnergy            15385543320                       # Energy for read commands per rank (pJ)
system.mem_ctrls1_0.writeEnergy            3619668060                       # Energy for write commands per rank (pJ)
system.mem_ctrls1_0.refreshEnergy        138467328480.000031                       # Energy for refresh commands per rank (pJ)
system.mem_ctrls1_0.actBackEnergy         90607238190                       # Energy for active background per rank (pJ)
system.mem_ctrls1_0.preBackEnergy          5012063520                       # Energy for precharge background per rank (pJ)
system.mem_ctrls1_0.actPowerDownEnergy   530823655470                       # Energy for active power-down per rank (pJ)
system.mem_ctrls1_0.prePowerDownEnergy   105487133280                       # Energy for precharge power-down per rank (pJ)
system.mem_ctrls1_0.selfRefreshEnergy     38676984090                       # Energy for self refresh per rank (pJ)
system.mem_ctrls1_0.totalEnergy          941557497030                       # Total energy per rank (pJ)
system.mem_ctrls1_0.averagePower           529.321845                       # Core power per rank (mW)
system.mem_ctrls1_0.totalIdleTime        1566968720135                       # Total Idle time Per DRAM Rank
system.mem_ctrls1_0.memoryStateTime::IDLE   5234483989                       # Time in different power states
system.mem_ctrls1_0.memoryStateTime::REF  58663368000                       # Time in different power states
system.mem_ctrls1_0.memoryStateTime::SREF 128179514943                       # Time in different power states
system.mem_ctrls1_0.memoryStateTime::PRE_PDN 274705718553                       # Time in different power states
system.mem_ctrls1_0.memoryStateTime::ACT 147932959630                       # Time in different power states
system.mem_ctrls1_0.memoryStateTime::ACT_PDN 1164083553373                       # Time in different power states
system.mem_ctrls1_1.actEnergy              8651973540                       # Energy for activate commands per rank (pJ)
system.mem_ctrls1_1.preEnergy              4598621610                       # Energy for precharge commands per rank (pJ)
system.mem_ctrls1_1.readEnergy            15200902920                       # Energy for read commands per rank (pJ)
system.mem_ctrls1_1.writeEnergy            3532113000                       # Energy for write commands per rank (pJ)
system.mem_ctrls1_1.refreshEnergy        138113295840.000031                       # Energy for refresh commands per rank (pJ)
system.mem_ctrls1_1.actBackEnergy         90764516580                       # Energy for active background per rank (pJ)
system.mem_ctrls1_1.preBackEnergy          5027358720                       # Energy for precharge background per rank (pJ)
system.mem_ctrls1_1.actPowerDownEnergy   526129122360                       # Energy for active power-down per rank (pJ)
system.mem_ctrls1_1.prePowerDownEnergy   106338611040                       # Energy for precharge power-down per rank (pJ)
system.mem_ctrls1_1.selfRefreshEnergy     40768211760                       # Energy for self refresh per rank (pJ)
system.mem_ctrls1_1.totalEnergy          939157461900                       # Total energy per rank (pJ)
system.mem_ctrls1_1.averagePower           527.972604                       # Core power per rank (mW)
system.mem_ctrls1_1.totalIdleTime        1566596594021                       # Total Idle time Per DRAM Rank
system.mem_ctrls1_1.memoryStateTime::IDLE   5321737714                       # Time in different power states
system.mem_ctrls1_1.memoryStateTime::REF  58515666000                       # Time in different power states
system.mem_ctrls1_1.memoryStateTime::SREF 135874252366                       # Time in different power states
system.mem_ctrls1_1.memoryStateTime::PRE_PDN 276923726382                       # Time in different power states
system.mem_ctrls1_1.memoryStateTime::ACT 148365441687                       # Time in different power states
system.mem_ctrls1_1.memoryStateTime::ACT_PDN 1153798774339                       # Time in different power states
system.pwrStateResidencyTicks::UNDEFINED 75048953399190                       # Cumulative time (in ticks) in various power states
system.cpu.branchPred.lookups                       2                       # Number of BP lookups
system.cpu.branchPred.condPredicted                 2                       # Number of conditional branches predicted
system.cpu.branchPred.condIncorrect                 1                       # Number of conditional branches incorrect
system.cpu.branchPred.BTBLookups                    0                       # Number of BTB lookups
system.cpu.branchPred.BTBHits                       0                       # Number of BTB hits
system.cpu.branchPred.BTBCorrect                    0                       # Number of correct BTB predictions (this stat may not work properly.
system.cpu.branchPred.BTBHitPct                   nan                       # BTB Hit Percentage
system.cpu.branchPred.usedRAS                       0                       # Number of times the RAS was used to get a target.
system.cpu.branchPred.RASInCorrect                  0                       # Number of incorrect RAS predictions.
system.cpu.branchPred.indirectLookups               0                       # Number of indirect predictor lookups.
system.cpu.branchPred.indirectHits                  0                       # Number of indirect target hits.
system.cpu.branchPred.indirectMisses                0                       # Number of indirect misses.
system.cpu.branchPredindirectMispredicted            0                       # Number of mispredicted indirect branches.
system.cpu_voltage_domain.voltage                   1                       # Voltage in Volts
system.cpu_clk_domain.clock                       333                       # Clock period in ticks
system.cpu.dtb.fetch_hits                           0                       # ITB hits
system.cpu.dtb.fetch_misses                         0                       # ITB misses
system.cpu.dtb.fetch_acv                            0                       # ITB acv
system.cpu.dtb.fetch_accesses                       0                       # ITB accesses
system.cpu.dtb.read_hits                           23                       # DTB read hits
system.cpu.dtb.read_misses                          0                       # DTB read misses
system.cpu.dtb.read_acv                             0                       # DTB read access violations
system.cpu.dtb.read_accesses                       23                       # DTB read accesses
system.cpu.dtb.write_hits                           3                       # DTB write hits
system.cpu.dtb.write_misses                         0                       # DTB write misses
system.cpu.dtb.write_acv                            0                       # DTB write access violations
system.cpu.dtb.write_accesses                       3                       # DTB write accesses
system.cpu.dtb.data_hits                           26                       # DTB hits
system.cpu.dtb.data_misses                          0                       # DTB misses
system.cpu.dtb.data_acv                             0                       # DTB access violations
system.cpu.dtb.data_accesses                       26                       # DTB accesses
system.cpu.itb.fetch_hits                           7                       # ITB hits
system.cpu.itb.fetch_misses                         0                       # ITB misses
system.cpu.itb.fetch_acv                            0                       # ITB acv
system.cpu.itb.fetch_accesses                       7                       # ITB accesses
system.cpu.itb.read_hits                            0                       # DTB read hits
system.cpu.itb.read_misses                          0                       # DTB read misses
system.cpu.itb.read_acv                             0                       # DTB read access violations
system.cpu.itb.read_accesses                        0                       # DTB read accesses
system.cpu.itb.write_hits                           0                       # DTB write hits
system.cpu.itb.write_misses                         0                       # DTB write misses
system.cpu.itb.write_acv                            0                       # DTB write access violations
system.cpu.itb.write_accesses                       0                       # DTB write accesses
system.cpu.itb.data_hits                            0                       # DTB hits
system.cpu.itb.data_misses                          0                       # DTB misses
system.cpu.itb.data_acv                             0                       # DTB access violations
system.cpu.itb.data_accesses                        0                       # DTB accesses
system.cpu.workload.num_syscalls                    0                       # Number of system calls
system.cpu.pwrStateResidencyTicks::ON    1778799598488                       # Cumulative time (in ticks) in various power states
system.cpu.numCycles                              871                       # number of cpu cycles simulated
system.cpu.numWorkItemsStarted                      0                       # number of work items this cpu started
system.cpu.numWorkItemsCompleted                    0                       # number of work items this cpu completed
system.cpu.fetch.icacheStallCycles                 62                       # Number of cycles fetch is stalled on an Icache miss
system.cpu.fetch.Insts                             51                       # Number of instructions fetch has processed
system.cpu.fetch.Branches                           2                       # Number of branches that fetch encountered
system.cpu.fetch.Cycles                             7                       # Number of cycles fetch has run and was not squashing or blocked
system.cpu.fetch.SquashCycles                       5                       # Number of cycles fetch has spent squashing
system.cpu.fetch.PendingDrainCycles                10                       # Number of cycles fetch has spent waiting on pipes to drain
system.cpu.fetch.CacheLines                         7                       # Number of cache lines fetched
system.cpu.fetch.IcacheSquashes                     3                       # Number of outstanding Icache misses that were squashed
system.cpu.fetch.rateDist::samples                 81                       # Number of instructions fetched each cycle (Total)
system.cpu.fetch.rateDist::mean              0.629630                       # Number of instructions fetched each cycle (Total)
system.cpu.fetch.rateDist::stdev             2.100265                       # Number of instructions fetched each cycle (Total)
system.cpu.fetch.rateDist::underflows               0      0.00%      0.00% # Number of instructions fetched each cycle (Total)
system.cpu.fetch.rateDist::0                       74     91.36%     91.36% # Number of instructions fetched each cycle (Total)
system.cpu.fetch.rateDist::1                        0      0.00%     91.36% # Number of instructions fetched each cycle (Total)
system.cpu.fetch.rateDist::2                        0      0.00%     91.36% # Number of instructions fetched each cycle (Total)
system.cpu.fetch.rateDist::3                        0      0.00%     91.36% # Number of instructions fetched each cycle (Total)
system.cpu.fetch.rateDist::4                        1      1.23%     92.59% # Number of instructions fetched each cycle (Total)
[...]
system.switch_cpus_1.iq.int_inst_queue_writes    142178361                       # Number of integer instruction queue writes
system.switch_cpus_1.iq.int_inst_queue_wakeup_accesses    140179974                       # Number of integer instruction queue wakeup accesses
system.switch_cpus_1.iq.fp_inst_queue_reads    152761169                       # Number of floating instruction queue reads
system.switch_cpus_1.iq.fp_inst_queue_writes     62654191                       # Number of floating instruction queue writes
system.switch_cpus_1.iq.fp_inst_queue_wakeup_accesses     61349112                       # Number of floating instruction queue wakeup accesses
system.switch_cpus_1.iq.int_alu_accesses    154308159                       # Number of integer alu accesses
system.switch_cpus_1.iq.fp_alu_accesses      82271109                       # Number of floating point alu accesses
system.switch_cpus_1.iew.lsq.thread0.forwLoads      1444202                       # Number of loads that had data forwarded from stores
system.switch_cpus_1.iew.lsq.thread0.invAddrLoads            0                       # Number of loads ignored due to an invalid address
system.switch_cpus_1.iew.lsq.thread0.squashedLoads       802855                       # Number of loads squashed
system.switch_cpus_1.iew.lsq.thread0.ignoredResponses            0                       # Number of memory responses ignored because the instruction is squashed
system.switch_cpus_1.iew.lsq.thread0.memOrderViolation          353                       # Number of memory ordering violations
system.switch_cpus_1.iew.lsq.thread0.squashedStores       151723                       # Number of stores squashed
system.switch_cpus_1.iew.lsq.thread0.invAddrSwpfs            0                       # Number of software prefetches ignored due to an invalid address
system.switch_cpus_1.iew.lsq.thread0.blockedLoads            0                       # Number of blocked loads due to partial load-store forwarding
system.switch_cpus_1.iew.lsq.thread0.rescheduledLoads            0                       # Number of loads that were rescheduled
system.switch_cpus_1.iew.lsq.thread0.cacheBlocked     13058956                       # Number of times an access to memory failed due to the cache being blocked
system.switch_cpus_1.iew.iewIdleCycles              0                       # Number of cycles IEW is idle
system.switch_cpus_1.iew.iewSquashCycles        63503                       # Number of cycles IEW is squashing
system.switch_cpus_1.iew.iewBlockCycles      16176480                       # Number of cycles IEW is blocking
system.switch_cpus_1.iew.iewUnblockCycles     30730872                       # Number of cycles IEW is unblocking
system.switch_cpus_1.iew.iewDispatchedInsts    202484028                       # Number of instructions dispatched to IQ
system.switch_cpus_1.iew.iewDispSquashedInsts        61552                       # Number of squashed instructions skipped by dispatch
system.switch_cpus_1.iew.iewDispLoadInsts     68397254                       # Number of dispatched load instructions
system.switch_cpus_1.iew.iewDispStoreInsts     10464204                       # Number of dispatched store instructions
system.switch_cpus_1.iew.iewDispNonSpecInsts           86                       # Number of dispatched non-speculative instructions
system.switch_cpus_1.iew.iewIQFullEvents       250826                       # Number of times the IQ has become full, causing a stall
system.switch_cpus_1.iew.iewLSQFullEvents     30217510                       # Number of times the LSQ has become full, causing a stall
system.switch_cpus_1.iew.memOrderViolationEvents          353                       # Number of memory order violations
system.switch_cpus_1.iew.predictedTakenIncorrect        47597                       # Number of branches that were predicted taken incorrectly
system.switch_cpus_1.iew.predictedNotTakenIncorrect          437                       # Number of branches that were predicted not taken incorrectly
system.switch_cpus_1.iew.branchMispredicts        48034                       # Number of branch mispredicts detected at execute
system.switch_cpus_1.iew.iewExecutedInsts    214442798                       # Number of executed instructions
system.switch_cpus_1.iew.iewExecLoadInsts     80940646                       # Number of load instructions executed
system.switch_cpus_1.iew.iewExecSquashedInsts       115019                       # Number of squashed instructions skipped in execute
system.switch_cpus_1.iew.exec_swp                   0                       # number of swp insts executed
system.switch_cpus_1.iew.exec_nop               67885                       # number of nop insts executed
system.switch_cpus_1.iew.exec_refs           91295220                       # number of memory reference insts executed
system.switch_cpus_1.iew.exec_branches        5549806                       # Number of branches executed
system.switch_cpus_1.iew.exec_stores         10354574                       # Number of stores executed
system.switch_cpus_1.iew.exec_rate           0.906909                       # Inst execution rate
system.switch_cpus_1.iew.wb_sent            201663418                       # cumulative count of insts sent to commit
system.switch_cpus_1.iew.wb_count           201529086                       # cumulative count of insts written-back
system.switch_cpus_1.iew.wb_producers       139700817                       # num instructions producing a value
system.switch_cpus_1.iew.wb_consumers       153365958                       # num instructions consuming a value
system.switch_cpus_1.iew.wb_rate             0.852295                       # insts written-back per cycle
system.switch_cpus_1.iew.wb_fanout           0.910898                       # average fanout of values written-back
system.switch_cpus_1.commit.commitSquashedInsts      2360420                       # The number of squashed insts skipped by commit
system.switch_cpus_1.commit.commitNonSpecStalls          144                       # The number of times commit has been forced to stall to communicate backwards
system.switch_cpus_1.commit.branchMispredicts        47874                       # The number of times a branch was mispredicted
system.switch_cpus_1.commit.committed_per_cycle::samples    236123937                       # Number of insts commited each cycle
system.switch_cpus_1.commit.committed_per_cycle::mean     0.847261                       # Number of insts commited each cycle
system.switch_cpus_1.commit.committed_per_cycle::stdev     2.302766                       # Number of insts commited each cycle
system.switch_cpus_1.commit.committed_per_cycle::underflows            0      0.00%      0.00% # Number of insts commited each cycle
system.switch_cpus_1.commit.committed_per_cycle::0    200303161     84.83%     84.83% # Number of insts commited each cycle
system.switch_cpus_1.commit.committed_per_cycle::1      7426769      3.15%     87.97% # Number of insts commited each cycle
system.switch_cpus_1.commit.committed_per_cycle::2      1500803      0.64%     88.61% # Number of insts commited each cycle
system.switch_cpus_1.commit.committed_per_cycle::3      1585021      0.67%     89.28% # Number of insts commited each cycle
system.switch_cpus_1.commit.committed_per_cycle::4      2209021      0.94%     90.22% # Number of insts commited each cycle
system.switch_cpus_1.commit.committed_per_cycle::5      1476077      0.63%     90.84% # Number of insts commited each cycle
system.switch_cpus_1.commit.committed_per_cycle::6      1336999      0.57%     91.41% # Number of insts commited each cycle
system.switch_cpus_1.commit.committed_per_cycle::7      1651918      0.70%     92.11% # Number of insts commited each cycle
system.switch_cpus_1.commit.committed_per_cycle::8     18634168      7.89%    100.00% # Number of insts commited each cycle
system.switch_cpus_1.commit.committed_per_cycle::overflows            0      0.00%    100.00% # Number of insts commited each cycle
system.switch_cpus_1.commit.committed_per_cycle::min_value            0                       # Number of insts commited each cycle
system.switch_cpus_1.commit.committed_per_cycle::max_value            8                       # Number of insts commited each cycle
system.switch_cpus_1.commit.committed_per_cycle::total    236123937                       # Number of insts commited each cycle
system.switch_cpus_1.commit.committedInsts    200058671                       # Number of instructions committed
system.switch_cpus_1.commit.committedOps    200058671                       # Number of ops (including micro ops) committed
system.switch_cpus_1.commit.swp_count               0                       # Number of s/w prefetches committed
system.switch_cpus_1.commit.refs             77906848                       # Number of memory references committed
system.switch_cpus_1.commit.loads            67594371                       # Number of loads committed
system.switch_cpus_1.commit.membars                72                       # Number of memory barriers committed
system.switch_cpus_1.commit.branches          5447366                       # Number of branches committed
system.switch_cpus_1.commit.fp_insts         61032861                       # Number of committed floating point instructions.
system.switch_cpus_1.commit.int_insts       169602469                       # Number of committed integer instructions.
system.switch_cpus_1.commit.function_calls           74                       # Number of function calls committed.
system.switch_cpus_1.commit.op_class_0::No_OpClass        58667      0.03%      0.03% # Class of committed instruction
system.switch_cpus_1.commit.op_class_0::IntAlu     69024585     34.50%     34.53% # Class of committed instruction
system.switch_cpus_1.commit.op_class_0::IntMult     22692429     11.34%     45.87% # Class of committed instruction
system.switch_cpus_1.commit.op_class_0::IntDiv            0      0.00%     45.87% # Class of committed instruction
system.switch_cpus_1.commit.op_class_0::FloatAdd     15421069      7.71%     53.58% # Class of committed instruction
system.switch_cpus_1.commit.op_class_0::FloatCmp            0      0.00%     53.58% # Class of committed instruction
system.switch_cpus_1.commit.op_class_0::FloatCvt         3010      0.00%     53.58% # Class of committed instruction
system.switch_cpus_1.commit.op_class_0::FloatMult     13619855      6.81%     60.39% # Class of committed instruction
system.switch_cpus_1.commit.op_class_0::FloatMultAcc            0      0.00%     60.39% # Class of committed instruction
system.switch_cpus_1.commit.op_class_0::FloatDiv      1151536      0.58%     60.97% # Class of committed instruction
system.switch_cpus_1.commit.op_class_0::FloatMisc            0      0.00%     60.97% # Class of committed instruction
system.switch_cpus_1.commit.op_class_0::FloatSqrt       180600      0.09%     61.06% # Class of committed instruction
system.switch_cpus_1.commit.op_class_0::SimdAdd            0      0.00%     61.06% # Class of committed instruction
system.switch_cpus_1.commit.op_class_0::SimdAddAcc            0      0.00%     61.06% # Class of committed instruction
system.switch_cpus_1.commit.op_class_0::SimdAlu            0      0.00%     61.06% # Class of committed instruction
system.switch_cpus_1.commit.op_class_0::SimdCmp            0      0.00%     61.06% # Class of committed instruction
system.switch_cpus_1.commit.op_class_0::SimdCvt            0      0.00%     61.06% # Class of committed instruction
system.switch_cpus_1.commit.op_class_0::SimdMisc            0      0.00%     61.06% # Class of committed instruction
system.switch_cpus_1.commit.op_class_0::SimdMult            0      0.00%     61.06% # Class of committed instruction
system.switch_cpus_1.commit.op_class_0::SimdMultAcc            0      0.00%     61.06% # Class of committed instruction
system.switch_cpus_1.commit.op_class_0::SimdShift            0      0.00%     61.06% # Class of committed instruction
system.switch_cpus_1.commit.op_class_0::SimdShiftAcc            0      0.00%     61.06% # Class of committed instruction
system.switch_cpus_1.commit.op_class_0::SimdSqrt            0      0.00%     61.06% # Class of committed instruction
system.switch_cpus_1.commit.op_class_0::SimdFloatAdd            0      0.00%     61.06% # Class of committed instruction
system.switch_cpus_1.commit.op_class_0::SimdFloatAlu            0      0.00%     61.06% # Class of committed instruction
system.switch_cpus_1.commit.op_class_0::SimdFloatCmp            0      0.00%     61.06% # Class of committed instruction
system.switch_cpus_1.commit.op_class_0::SimdFloatCvt            0      0.00%     61.06% # Class of committed instruction
system.switch_cpus_1.commit.op_class_0::SimdFloatDiv            0      0.00%     61.06% # Class of committed instruction
system.switch_cpus_1.commit.op_class_0::SimdFloatMisc            0      0.00%     61.06% # Class of committed instruction
system.switch_cpus_1.commit.op_class_0::SimdFloatMult            0      0.00%     61.06% # Class of committed instruction
system.switch_cpus_1.commit.op_class_0::SimdFloatMultAcc            0      0.00%     61.06% # Class of committed instruction
system.switch_cpus_1.commit.op_class_0::SimdFloatSqrt            0      0.00%     61.06% # Class of committed instruction
system.switch_cpus_1.commit.op_class_0::MemRead     44149715     22.07%     83.13% # Class of committed instruction
system.switch_cpus_1.commit.op_class_0::MemWrite      3100414      1.55%     84.68% # Class of committed instruction
system.switch_cpus_1.commit.op_class_0::FloatMemRead     23444728     11.72%     96.40% # Class of committed instruction
system.switch_cpus_1.commit.op_class_0::FloatMemWrite      7212063      3.60%    100.00% # Class of committed instruction
system.switch_cpus_1.commit.op_class_0::IprAccess            0      0.00%    100.00% # Class of committed instruction
system.switch_cpus_1.commit.op_class_0::InstPrefetch            0      0.00%    100.00% # Class of committed instruction
system.switch_cpus_1.commit.op_class_0::total    200058671                       # Class of committed instruction
system.switch_cpus_1.commit.bw_lim_events     18634168                       # number cycles where commit BW limit reached
system.switch_cpus_1.rob.rob_reads          419709687                       # The number of ROB reads
system.switch_cpus_1.rob.rob_writes         405157654                       # The number of ROB writes
system.switch_cpus_1.timesIdled                   115                       # Number of times that the entire CPU went into an idle state and unscheduled itself
system.switch_cpus_1.idleCycles                 11388                       # Total number of cycles that the CPU has spent unscheduled due to idling
system.switch_cpus_1.committedInsts         200000004                       # Number of Instructions Simulated
system.switch_cpus_1.committedOps           200000004                       # Number of Ops (including micro ops) Simulated
system.switch_cpus_1.cpi                     1.182274                       # CPI: Cycles Per Instruction
system.switch_cpus_1.cpi_total               1.182274                       # CPI: Total CPI of All Threads
system.switch_cpus_1.ipc                     0.845828                       # IPC: Instructions Per Cycle
system.switch_cpus_1.ipc_total               0.845828                       # IPC: Total IPC of All Threads
system.switch_cpus_1.int_regfile_reads      260978363                       # number of integer regfile reads
system.switch_cpus_1.int_regfile_writes     131551888                       # number of integer regfile writes
system.switch_cpus_1.fp_regfile_reads        68054863                       # number of floating regfile reads
system.switch_cpus_1.fp_regfile_writes       54127034                       # number of floating regfile writes
system.switch_cpus_1.misc_regfile_reads           162                       # number of misc regfile reads
system.switch_cpus_1.misc_regfile_writes          144                       # number of misc regfile writes
system.tol3bus.snoop_filter.tot_requests     21501564                       # Total number of requests made to the snoop filter.
system.tol3bus.snoop_filter.hit_single_requests     10748475                       # Number of requests hitting in the snoop filter with a single holder of the requested data.
system.tol3bus.snoop_filter.hit_multi_requests            0                       # Number of requests hitting in the snoop filter with multiple (>1) holders of the requested data.
system.tol3bus.snoop_filter.tot_snoops          74819                       # Total number of snoops made to the snoop filter.
system.tol3bus.snoop_filter.hit_single_snoops        74819                       # Number of snoops hitting in the snoop filter with a single holder of the requested data.
system.tol3bus.snoop_filter.hit_multi_snoops            0                       # Number of snoops hitting in the snoop filter with multiple (>1) holders of the requested data.
system.tol3bus.pwrStateResidencyTicks::UNDEFINED 75048953399190                       # Cumulative time (in ticks) in various power states
system.tol3bus.trans_dist::ReadResp           8306218                       # Transaction distribution
system.tol3bus.trans_dist::WritebackDirty      6027222                       # Transaction distribution
system.tol3bus.trans_dist::CleanEvict        13228707                       # Transaction distribution
system.tol3bus.trans_dist::ReadExReq          2446871                       # Transaction distribution
system.tol3bus.trans_dist::ReadExResp         2446869                       # Transaction distribution
system.tol3bus.trans_dist::ReadSharedReq      8306218                       # Transaction distribution
system.tol3bus.pkt_count_system.cpu.l2.mem_side::system.l3.cpu_side     32254651                       # Packet count per connected master and slave (bytes)
system.tol3bus.pkt_size_system.cpu.l2.mem_side::system.l3.cpu_side    898555008                       # Cumulative packet size per connected master and slave (bytes)
system.tol3bus.snoops                         8507454                       # Total snoops (count)
system.tol3bus.snoopTraffic                 175384768                       # Total snoop traffic (bytes)
system.tol3bus.snoop_fanout::samples         19260543                       # Request fanout histogram
system.tol3bus.snoop_fanout::mean            0.003885                       # Request fanout histogram
system.tol3bus.snoop_fanout::stdev           0.062205                       # Request fanout histogram
system.tol3bus.snoop_fanout::underflows             0      0.00%      0.00% # Request fanout histogram
system.tol3bus.snoop_fanout::0               19185724     99.61%     99.61% # Request fanout histogram
system.tol3bus.snoop_fanout::1                  74819      0.39%    100.00% # Request fanout histogram
system.tol3bus.snoop_fanout::overflows              0      0.00%    100.00% # Request fanout histogram
system.tol3bus.snoop_fanout::min_value              0                       # Request fanout histogram
system.tol3bus.snoop_fanout::max_value              1                       # Request fanout histogram
system.tol3bus.snoop_fanout::total           19260543                       # Request fanout histogram
system.tol3bus.reqLayer0.occupancy         8254536867                       # Layer occupancy (ticks)
system.tol3bus.reqLayer0.utilization              0.5                       # Layer utilization (%)
system.tol3bus.respLayer0.occupancy        7161555942                       # Layer occupancy (ticks)
system.tol3bus.respLayer0.utilization             0.4                       # Layer utilization (%)

---------- End Simulation Statistics   ----------
