
---------- Begin Simulation Statistics ----------
sim_seconds                                  1.006096                       # Number of seconds simulated
sim_ticks                                1006095887343                       # Number of ticks simulated
final_tick                               176557380009210                       # Number of ticks from beginning of simulation (restored from checkpoints and never reset)
sim_freq                                 1000000000000                       # Frequency of simulated ticks
host_inst_rate                                 717569                       # Simulator instruction rate (inst/s)
host_op_rate                                   717569                       # Simulator op (including micro ops) rate (op/s)
host_tick_rate                              601619652                       # Simulator tick rate (ticks/s)
host_mem_usage                                2387956                       # Number of bytes of host memory used
host_seconds                                  1672.31                       # Real time elapsed on the host
sim_insts                                  1200000005                       # Number of instructions simulated
sim_ops                                    1200000005                       # Number of ops (including micro ops) simulated
system.voltage_domain.voltage                       1                       # Voltage in Volts
system.clk_domain.clock                          1000                       # Clock period in ticks
system.mem_ctrls0.pwrStateResidencyTicks::UNDEFINED 176557380009210                       # Cumulative time (in ticks) in various power states
system.mem_ctrls0.bytes_read::cpu.inst             64                       # Number of bytes read from this memory
system.mem_ctrls0.bytes_read::cpu.data            192                       # Number of bytes read from this memory
system.mem_ctrls0.bytes_read::switch_cpus.inst        47808                       # Number of bytes read from this memory
system.mem_ctrls0.bytes_read::switch_cpus.data      2443456                       # Number of bytes read from this memory
system.mem_ctrls0.bytes_read::switch_cpus_1.inst        10624                       # Number of bytes read from this memory
system.mem_ctrls0.bytes_read::switch_cpus_1.data       414720                       # Number of bytes read from this memory
system.mem_ctrls0.bytes_read::total           2916864                       # Number of bytes read from this memory
system.mem_ctrls0.bytes_inst_read::cpu.inst           64                       # Number of instructions bytes read from this memory
system.mem_ctrls0.bytes_inst_read::switch_cpus.inst        47808                       # Number of instructions bytes read from this memory
system.mem_ctrls0.bytes_inst_read::switch_cpus_1.inst        10624                       # Number of instructions bytes read from this memory
system.mem_ctrls0.bytes_inst_read::total        58496                       # Number of instructions bytes read from this memory
system.mem_ctrls0.bytes_written::writebacks       406528                       # Number of bytes written to this memory
system.mem_ctrls0.bytes_written::total         406528                       # Number of bytes written to this memory
system.mem_ctrls0.num_reads::cpu.inst               1                       # Number of read requests responded to by this memory
system.mem_ctrls0.num_reads::cpu.data               3                       # Number of read requests responded to by this memory
system.mem_ctrls0.num_reads::switch_cpus.inst          747                       # Number of read requests responded to by this memory
system.mem_ctrls0.num_reads::switch_cpus.data        38179                       # Number of read requests responded to by this memory
system.mem_ctrls0.num_reads::switch_cpus_1.inst          166                       # Number of read requests responded to by this memory
system.mem_ctrls0.num_reads::switch_cpus_1.data         6480                       # Number of read requests responded to by this memory
system.mem_ctrls0.num_reads::total              45576                       # Number of read requests responded to by this memory
system.mem_ctrls0.num_writes::writebacks         6352                       # Number of write requests responded to by this memory
system.mem_ctrls0.num_writes::total              6352                       # Number of write requests responded to by this memory
system.mem_ctrls0.bw_read::cpu.inst                64                       # Total read bandwidth from this memory (bytes/s)
system.mem_ctrls0.bw_read::cpu.data               191                       # Total read bandwidth from this memory (bytes/s)
system.mem_ctrls0.bw_read::switch_cpus.inst        47518                       # Total read bandwidth from this memory (bytes/s)
system.mem_ctrls0.bw_read::switch_cpus.data      2428651                       # Total read bandwidth from this memory (bytes/s)
system.mem_ctrls0.bw_read::switch_cpus_1.inst        10560                       # Total read bandwidth from this memory (bytes/s)
system.mem_ctrls0.bw_read::switch_cpus_1.data       412207                       # Total read bandwidth from this memory (bytes/s)
system.mem_ctrls0.bw_read::total              2899191                       # Total read bandwidth from this memory (bytes/s)
system.mem_ctrls0.bw_inst_read::cpu.inst           64                       # Instruction read bandwidth from this memory (bytes/s)
system.mem_ctrls0.bw_inst_read::switch_cpus.inst        47518                       # Instruction read bandwidth from this memory (bytes/s)
system.mem_ctrls0.bw_inst_read::switch_cpus_1.inst        10560                       # Instruction read bandwidth from this memory (bytes/s)
system.mem_ctrls0.bw_inst_read::total           58142                       # Instruction read bandwidth from this memory (bytes/s)
system.mem_ctrls0.bw_write::writebacks         404065                       # Write bandwidth from this memory (bytes/s)
system.mem_ctrls0.bw_write::total              404065                       # Write bandwidth from this memory (bytes/s)
system.mem_ctrls0.bw_total::writebacks         404065                       # Total bandwidth to/from this memory (bytes/s)
system.mem_ctrls0.bw_total::cpu.inst               64                       # Total bandwidth to/from this memory (bytes/s)
system.mem_ctrls0.bw_total::cpu.data              191                       # Total bandwidth to/from this memory (bytes/s)
system.mem_ctrls0.bw_total::switch_cpus.inst        47518                       # Total bandwidth to/from this memory (bytes/s)
system.mem_ctrls0.bw_total::switch_cpus.data      2428651                       # Total bandwidth to/from this memory (bytes/s)
system.mem_ctrls0.bw_total::switch_cpus_1.inst        10560                       # Total bandwidth to/from this memory (bytes/s)
system.mem_ctrls0.bw_total::switch_cpus_1.data       412207                       # Total bandwidth to/from this memory (bytes/s)
system.mem_ctrls0.bw_total::total             3303256                       # Total bandwidth to/from this memory (bytes/s)
system.mem_ctrls0.readReqs                      45576                       # Number of read requests accepted
system.mem_ctrls0.writeReqs                      6352                       # Number of write requests accepted
system.mem_ctrls0.readBursts                    45576                       # Number of DRAM read bursts, including those serviced by the write queue
system.mem_ctrls0.writeBursts                    6352                       # Number of DRAM write bursts, including those merged in the write queue
system.mem_ctrls0.bytesReadDRAM               2867648                       # Total number of bytes read from DRAM
system.mem_ctrls0.bytesReadWrQ                  49216                       # Total number of bytes read from write queue
system.mem_ctrls0.bytesWritten                 404608                       # Total number of bytes written to DRAM
system.mem_ctrls0.bytesReadSys                2916864                       # Total read bytes from the system interface side
system.mem_ctrls0.bytesWrittenSys              406528                       # Total written bytes from the system interface side
system.mem_ctrls0.servicedByWrQ                   769                       # Number of DRAM read bursts serviced by the write queue
system.mem_ctrls0.mergedWrBursts                    3                       # Number of DRAM write bursts merged with an existing one
system.mem_ctrls0.neitherReadNorWriteReqs            0                       # Number of requests that are neither read nor write
system.mem_ctrls0.perBankRdBursts::0             2906                       # Per bank write bursts
system.mem_ctrls0.perBankRdBursts::1             2360                       # Per bank write bursts
system.mem_ctrls0.perBankRdBursts::2             2511                       # Per bank write bursts
system.mem_ctrls0.perBankRdBursts::3             2661                       # Per bank write bursts
system.mem_ctrls0.perBankRdBursts::4             2504                       # Per bank write bursts
system.mem_ctrls0.perBankRdBursts::5             2623                       # Per bank write bursts
system.mem_ctrls0.perBankRdBursts::6             3193                       # Per bank write bursts
system.mem_ctrls0.perBankRdBursts::7             2815                       # Per bank write bursts
system.mem_ctrls0.perBankRdBursts::8             2924                       # Per bank write bursts
system.mem_ctrls0.perBankRdBursts::9             2763                       # Per bank write bursts
system.mem_ctrls0.perBankRdBursts::10            2883                       # Per bank write bursts
system.mem_ctrls0.perBankRdBursts::11            2707                       # Per bank write bursts
system.mem_ctrls0.perBankRdBursts::12            2923                       # Per bank write bursts
system.mem_ctrls0.perBankRdBursts::13            2766                       # Per bank write bursts
system.mem_ctrls0.perBankRdBursts::14            3532                       # Per bank write bursts
system.mem_ctrls0.perBankRdBursts::15            2736                       # Per bank write bursts
system.mem_ctrls0.perBankWrBursts::0              493                       # Per bank write bursts
system.mem_ctrls0.perBankWrBursts::1              185                       # Per bank write bursts
system.mem_ctrls0.perBankWrBursts::2              305                       # Per bank write bursts
system.mem_ctrls0.perBankWrBursts::3              224                       # Per bank write bursts
system.mem_ctrls0.perBankWrBursts::4              321                       # Per bank write bursts
system.mem_ctrls0.perBankWrBursts::5              244                       # Per bank write bursts
system.mem_ctrls0.perBankWrBursts::6              784                       # Per bank write bursts
system.mem_ctrls0.perBankWrBursts::7              393                       # Per bank write bursts
system.mem_ctrls0.perBankWrBursts::8              514                       # Per bank write bursts
system.mem_ctrls0.perBankWrBursts::9              224                       # Per bank write bursts
system.mem_ctrls0.perBankWrBursts::10             298                       # Per bank write bursts
system.mem_ctrls0.perBankWrBursts::11             312                       # Per bank write bursts
system.mem_ctrls0.perBankWrBursts::12             400                       # Per bank write bursts
system.mem_ctrls0.perBankWrBursts::13             330                       # Per bank write bursts
system.mem_ctrls0.perBankWrBursts::14             948                       # Per bank write bursts
system.mem_ctrls0.perBankWrBursts::15             347                       # Per bank write bursts
system.mem_ctrls0.numRdRetry                        0                       # Number of times read queue was full causing retry
system.mem_ctrls0.numWrRetry                        0                       # Number of times write queue was full causing retry
system.mem_ctrls0.totGap                 1006089200037                       # Total gap between requests
system.mem_ctrls0.readPktSize::0                    0                       # Read request sizes (log2)
system.mem_ctrls0.readPktSize::1                    0                       # Read request sizes (log2)
system.mem_ctrls0.readPktSize::2                    0                       # Read request sizes (log2)
system.mem_ctrls0.readPktSize::3                    0                       # Read request sizes (log2)
system.mem_ctrls0.readPktSize::4                    0                       # Read request sizes (log2)
system.mem_ctrls0.readPktSize::5                    0                       # Read request sizes (log2)
system.mem_ctrls0.readPktSize::6                45576                       # Read request sizes (log2)
system.mem_ctrls0.writePktSize::0                   0                       # Write request sizes (log2)
system.mem_ctrls0.writePktSize::1                   0                       # Write request sizes (log2)
system.mem_ctrls0.writePktSize::2                   0                       # Write request sizes (log2)
system.mem_ctrls0.writePktSize::3                   0                       # Write request sizes (log2)
system.mem_ctrls0.writePktSize::4                   0                       # Write request sizes (log2)
system.mem_ctrls0.writePktSize::5                   0                       # Write request sizes (log2)
system.mem_ctrls0.writePktSize::6                6352                       # Write request sizes (log2)
system.mem_ctrls0.rdQLenPdf::0                  44620                       # What read queue length does an incoming req see
system.mem_ctrls0.rdQLenPdf::1                    179                       # What read queue length does an incoming req see
system.mem_ctrls0.rdQLenPdf::2                      8                       # What read queue length does an incoming req see
system.mem_ctrls0.rdQLenPdf::3                      0                       # What read queue length does an incoming req see
system.mem_ctrls0.rdQLenPdf::4                      0                       # What read queue length does an incoming req see
system.mem_ctrls0.rdQLenPdf::5                      0                       # What read queue length does an incoming req see
system.mem_ctrls0.rdQLenPdf::6                      0                       # What read queue length does an incoming req see
system.mem_ctrls0.rdQLenPdf::7                      0                       # What read queue length does an incoming req see
system.mem_ctrls0.rdQLenPdf::8                      0                       # What read queue length does an incoming req see
system.mem_ctrls0.rdQLenPdf::9                      0                       # What read queue length does an incoming req see
system.mem_ctrls0.rdQLenPdf::10                     0                       # What read queue length does an incoming req see
system.mem_ctrls0.rdQLenPdf::11                     0                       # What read queue length does an incoming req see
system.mem_ctrls0.rdQLenPdf::12                     0                       # What read queue length does an incoming req see
system.mem_ctrls0.rdQLenPdf::13                     0                       # What read queue length does an incoming req see
system.mem_ctrls0.rdQLenPdf::14                     0                       # What read queue length does an incoming req see
system.mem_ctrls0.rdQLenPdf::15                     0                       # What read queue length does an incoming req see
system.mem_ctrls0.rdQLenPdf::16                     0                       # What read queue length does an incoming req see
system.mem_ctrls0.rdQLenPdf::17                     0                       # What read queue length does an incoming req see
system.mem_ctrls0.rdQLenPdf::18                     0                       # What read queue length does an incoming req see
system.mem_ctrls0.rdQLenPdf::19                     0                       # What read queue length does an incoming req see
system.mem_ctrls0.rdQLenPdf::20                     0                       # What read queue length does an incoming req see
system.mem_ctrls0.rdQLenPdf::21                     0                       # What read queue length does an incoming req see
system.mem_ctrls0.rdQLenPdf::22                     0                       # What read queue length does an incoming req see
system.mem_ctrls0.rdQLenPdf::23                     0                       # What read queue length does an incoming req see
system.mem_ctrls0.rdQLenPdf::24                     0                       # What read queue length does an incoming req see
system.mem_ctrls0.rdQLenPdf::25                     0                       # What read queue length does an incoming req see
system.mem_ctrls0.rdQLenPdf::26                     0                       # What read queue length does an incoming req see
system.mem_ctrls0.rdQLenPdf::27                     0                       # What read queue length does an incoming req see
system.mem_ctrls0.rdQLenPdf::28                     0                       # What read queue length does an incoming req see
system.mem_ctrls0.rdQLenPdf::29                     0                       # What read queue length does an incoming req see
system.mem_ctrls0.rdQLenPdf::30                     0                       # What read queue length does an incoming req see
system.mem_ctrls0.rdQLenPdf::31                     0                       # What read queue length does an incoming req see
system.mem_ctrls0.wrQLenPdf::0                      2                       # What write queue length does an incoming req see
system.mem_ctrls0.wrQLenPdf::1                      2                       # What write queue length does an incoming req see
system.mem_ctrls0.wrQLenPdf::2                      2                       # What write queue length does an incoming req see
system.mem_ctrls0.wrQLenPdf::3                      2                       # What write queue length does an incoming req see
system.mem_ctrls0.wrQLenPdf::4                      2                       # What write queue length does an incoming req see
system.mem_ctrls0.wrQLenPdf::5                      2                       # What write queue length does an incoming req see
system.mem_ctrls0.wrQLenPdf::6                      2                       # What write queue length does an incoming req see
system.mem_ctrls0.wrQLenPdf::7                      2                       # What write queue length does an incoming req see
system.mem_ctrls0.wrQLenPdf::8                      2                       # What write queue length does an incoming req see
system.mem_ctrls0.wrQLenPdf::9                      2                       # What write queue length does an incoming req see
system.mem_ctrls0.wrQLenPdf::10                     2                       # What write queue length does an incoming req see
system.mem_ctrls0.wrQLenPdf::11                     2                       # What write queue length does an incoming req see
system.mem_ctrls0.wrQLenPdf::12                     2                       # What write queue length does an incoming req see
system.mem_ctrls0.wrQLenPdf::13                     2                       # What write queue length does an incoming req see
system.mem_ctrls0.wrQLenPdf::14                     2                       # What write queue length does an incoming req see
system.mem_ctrls0.wrQLenPdf::15                   326                       # What write queue length does an incoming req see
system.mem_ctrls0.wrQLenPdf::16                   327                       # What write queue length does an incoming req see
system.mem_ctrls0.wrQLenPdf::17                   354                       # What write queue length does an incoming req see
system.mem_ctrls0.wrQLenPdf::18                   355                       # What write queue length does an incoming req see
system.mem_ctrls0.wrQLenPdf::19                   355                       # What write queue length does an incoming req see
system.mem_ctrls0.wrQLenPdf::20                   354                       # What write queue length does an incoming req see
system.mem_ctrls0.wrQLenPdf::21                   355                       # What write queue length does an incoming req see
system.mem_ctrls0.wrQLenPdf::22                   356                       # What write queue length does an incoming req see
system.mem_ctrls0.wrQLenPdf::23                   354                       # What write queue length does an incoming req see
system.mem_ctrls0.wrQLenPdf::24                   355                       # What write queue length does an incoming req see
system.mem_ctrls0.wrQLenPdf::25                   353                       # What write queue length does an incoming req see
system.mem_ctrls0.wrQLenPdf::26                   354                       # What write queue length does an incoming req see
system.mem_ctrls0.wrQLenPdf::27                   352                       # What write queue length does an incoming req see
system.mem_ctrls0.wrQLenPdf::28                   353                       # What write queue length does an incoming req see
system.mem_ctrls0.wrQLenPdf::29                   354                       # What write queue length does an incoming req see
system.mem_ctrls0.wrQLenPdf::30                   353                       # What write queue length does an incoming req see
system.mem_ctrls0.wrQLenPdf::31                   352                       # What write queue length does an incoming req see
system.mem_ctrls0.wrQLenPdf::32                   352                       # What write queue length does an incoming req see
system.mem_ctrls0.wrQLenPdf::33                     5                       # What write queue length does an incoming req see
system.mem_ctrls0.wrQLenPdf::34                     0                       # What write queue length does an incoming req see
system.mem_ctrls0.wrQLenPdf::35                     0                       # What write queue length does an incoming req see
system.mem_ctrls0.wrQLenPdf::36                     0                       # What write queue length does an incoming req see
system.mem_ctrls0.wrQLenPdf::37                     0                       # What write queue length does an incoming req see
system.mem_ctrls0.wrQLenPdf::38                     0                       # What write queue length does an incoming req see
system.mem_ctrls0.wrQLenPdf::39                     0                       # What write queue length does an incoming req see
system.mem_ctrls0.wrQLenPdf::40                     0                       # What write queue length does an incoming req see
system.mem_ctrls0.wrQLenPdf::41                     0                       # What write queue length does an incoming req see
system.mem_ctrls0.wrQLenPdf::42                     0                       # What write queue length does an incoming req see
system.mem_ctrls0.wrQLenPdf::43                     0                       # What write queue length does an incoming req see
system.mem_ctrls0.wrQLenPdf::44                     0                       # What write queue length does an incoming req see
system.mem_ctrls0.wrQLenPdf::45                     0                       # What write queue length does an incoming req see
system.mem_ctrls0.wrQLenPdf::46                     0                       # What write queue length does an incoming req see
system.mem_ctrls0.wrQLenPdf::47                     0                       # What write queue length does an incoming req see
system.mem_ctrls0.wrQLenPdf::48                     0                       # What write queue length does an incoming req see
system.mem_ctrls0.wrQLenPdf::49                     0                       # What write queue length does an incoming req see
system.mem_ctrls0.wrQLenPdf::50                     0                       # What write queue length does an incoming req see
system.mem_ctrls0.wrQLenPdf::51                     0                       # What write queue length does an incoming req see
system.mem_ctrls0.wrQLenPdf::52                     0                       # What write queue length does an incoming req see
system.mem_ctrls0.wrQLenPdf::53                     0                       # What write queue length does an incoming req see
system.mem_ctrls0.wrQLenPdf::54                     0                       # What write queue length does an incoming req see
system.mem_ctrls0.wrQLenPdf::55                     0                       # What write queue length does an incoming req see
system.mem_ctrls0.wrQLenPdf::56                     0                       # What write queue length does an incoming req see
system.mem_ctrls0.wrQLenPdf::57                     0                       # What write queue length does an incoming req see
system.mem_ctrls0.wrQLenPdf::58                     0                       # What write queue length does an incoming req see
system.mem_ctrls0.wrQLenPdf::59                     0                       # What write queue length does an incoming req see
system.mem_ctrls0.wrQLenPdf::60                     0                       # What write queue length does an incoming req see
system.mem_ctrls0.wrQLenPdf::61                     0                       # What write queue length does an incoming req see
system.mem_ctrls0.wrQLenPdf::62                     0                       # What write queue length does an incoming req see
system.mem_ctrls0.wrQLenPdf::63                     0                       # What write queue length does an incoming req see
system.mem_ctrls0.bytesPerActivate::samples        22295                       # Bytes accessed per row activation
system.mem_ctrls0.bytesPerActivate::mean   146.770845                       # Bytes accessed per row activation
system.mem_ctrls0.bytesPerActivate::gmean   106.048870                       # Bytes accessed per row activation
system.mem_ctrls0.bytesPerActivate::stdev   171.667073                       # Bytes accessed per row activation
system.mem_ctrls0.bytesPerActivate::0-127        12714     57.03%     57.03% # Bytes accessed per row activation
system.mem_ctrls0.bytesPerActivate::128-255         6512     29.21%     86.23% # Bytes accessed per row activation
system.mem_ctrls0.bytesPerActivate::256-383         1309      5.87%     92.11% # Bytes accessed per row activation
system.mem_ctrls0.bytesPerActivate::384-511          824      3.70%     95.80% # Bytes accessed per row activation
system.mem_ctrls0.bytesPerActivate::512-639          168      0.75%     96.56% # Bytes accessed per row activation
system.mem_ctrls0.bytesPerActivate::640-767          124      0.56%     97.11% # Bytes accessed per row activation
system.mem_ctrls0.bytesPerActivate::768-895          102      0.46%     97.57% # Bytes accessed per row activation
system.mem_ctrls0.bytesPerActivate::896-1023          164      0.74%     98.30% # Bytes accessed per row activation
system.mem_ctrls0.bytesPerActivate::1024-1151          378      1.70%    100.00% # Bytes accessed per row activation
system.mem_ctrls0.bytesPerActivate::total        22295                       # Bytes accessed per row activation
system.mem_ctrls0.rdPerTurnAround::samples          353                       # Reads before turning the bus around for writes
system.mem_ctrls0.rdPerTurnAround::mean    126.892351                       # Reads before turning the bus around for writes
system.mem_ctrls0.rdPerTurnAround::stdev  1506.805297                       # Reads before turning the bus around for writes
system.mem_ctrls0.rdPerTurnAround::0-1023          352     99.72%     99.72% # Reads before turning the bus around for writes
system.mem_ctrls0.rdPerTurnAround::27648-28671            1      0.28%    100.00% # Reads before turning the bus around for writes
system.mem_ctrls0.rdPerTurnAround::total          353                       # Reads before turning the bus around for writes
system.mem_ctrls0.wrPerTurnAround::samples          353                       # Writes before turning the bus around for reads
system.mem_ctrls0.wrPerTurnAround::mean     17.909348                       # Writes before turning the bus around for reads
system.mem_ctrls0.wrPerTurnAround::gmean    17.896730                       # Writes before turning the bus around for reads
system.mem_ctrls0.wrPerTurnAround::stdev     0.668060                       # Writes before turning the bus around for reads
system.mem_ctrls0.wrPerTurnAround::16              28      7.93%      7.93% # Writes before turning the bus around for reads
system.mem_ctrls0.wrPerTurnAround::18             307     86.97%     94.90% # Writes before turning the bus around for reads
system.mem_ctrls0.wrPerTurnAround::19              15      4.25%     99.15% # Writes before turning the bus around for reads
system.mem_ctrls0.wrPerTurnAround::20               2      0.57%     99.72% # Writes before turning the bus around for reads
system.mem_ctrls0.wrPerTurnAround::23               1      0.28%    100.00% # Writes before turning the bus around for reads
system.mem_ctrls0.wrPerTurnAround::total          353                       # Writes before turning the bus around for reads
system.mem_ctrls0.totQLat                  3914178283                       # Total ticks spent queuing
system.mem_ctrls0.totMemAccLat             4754309533                       # Total ticks spent from burst creation until serviced by the DRAM
system.mem_ctrls0.totBusLat                 224035000                       # Total ticks spent in databus transfers
system.mem_ctrls0.avgQLat                    87356.40                       # Average queueing delay per DRAM burst
system.mem_ctrls0.avgBusLat                   5000.00                       # Average bus latency per DRAM burst
system.mem_ctrls0.avgMemAccLat              106106.40                       # Average memory access latency per DRAM burst
system.mem_ctrls0.avgRdBW                        2.85                       # Average DRAM read bandwidth in MiByte/s
system.mem_ctrls0.avgWrBW                        0.40                       # Average achieved write bandwidth in MiByte/s
system.mem_ctrls0.avgRdBWSys                     2.90                       # Average system read bandwidth in MiByte/s
system.mem_ctrls0.avgWrBWSys                     0.40                       # Average system write bandwidth in MiByte/s
system.mem_ctrls0.peakBW                     12800.00                       # Theoretical peak bandwidth in MiByte/s
system.mem_ctrls0.busUtil                        0.03                       # Data bus utilization in percentage
system.mem_ctrls0.busUtilRead                    0.02                       # Data bus utilization in percentage for reads
system.mem_ctrls0.busUtilWrite                   0.00                       # Data bus utilization in percentage for writes
system.mem_ctrls0.avgRdQLen                      1.00                       # Average read queue length when enqueuing
system.mem_ctrls0.avgWrQLen                     14.09                       # Average write queue length when enqueuing
system.mem_ctrls0.readRowHits                   27635                       # Number of row buffer hits during reads
system.mem_ctrls0.writeRowHits                   1199                       # Number of row buffer hits during writes
system.mem_ctrls0.readRowHitRate                61.68                       # Row buffer hit rate for reads
system.mem_ctrls0.writeRowHitRate               18.88                       # Row buffer hit rate for writes
system.mem_ctrls0.avgGap                  19374695.73                       # Average gap between requests
system.mem_ctrls0.pageHitRate                   56.36                       # Row buffer hit rate, read and write combined
system.mem_ctrls0_0.actEnergy                72927960                       # Energy for activate commands per rank (pJ)
system.mem_ctrls0_0.preEnergy                38762130                       # Energy for precharge commands per rank (pJ)
system.mem_ctrls0_0.readEnergy              154031220                       # Energy for read commands per rank (pJ)
system.mem_ctrls0_0.writeEnergy              15393780                       # Energy for write commands per rank (pJ)
system.mem_ctrls0_0.refreshEnergy        6772103520.000002                       # Energy for refresh commands per rank (pJ)
system.mem_ctrls0_0.actBackEnergy          2176314720                       # Energy for active background per rank (pJ)
system.mem_ctrls0_0.preBackEnergy           410746080                       # Energy for precharge background per rank (pJ)
system.mem_ctrls0_0.actPowerDownEnergy    14248426800                       # Energy for active power-down per rank (pJ)
system.mem_ctrls0_0.prePowerDownEnergy    10243730880                       # Energy for precharge power-down per rank (pJ)
system.mem_ctrls0_0.selfRefreshEnergy    227837509950                       # Energy for self refresh per rank (pJ)
system.mem_ctrls0_0.totalEnergy          261972155850                       # Total energy per rank (pJ)
system.mem_ctrls0_0.averagePower           260.384879                       # Core power per rank (mW)
system.mem_ctrls0_0.totalIdleTime        1000213868829                       # Total Idle time Per DRAM Rank
system.mem_ctrls0_0.memoryStateTime::IDLE    834008818                       # Time in different power states
system.mem_ctrls0_0.memoryStateTime::REF   2883112000                       # Time in different power states
system.mem_ctrls0_0.memoryStateTime::SREF 942325728093                       # Time in different power states
system.mem_ctrls0_0.memoryStateTime::PRE_PDN  26676285286                       # Time in different power states
system.mem_ctrls0_0.memoryStateTime::ACT   2130255997                       # Time in different power states
system.mem_ctrls0_0.memoryStateTime::ACT_PDN  31246497149                       # Time in different power states
system.mem_ctrls0_1.actEnergy                86258340                       # Energy for activate commands per rank (pJ)
system.mem_ctrls0_1.preEnergy                45847395                       # Energy for precharge commands per rank (pJ)
system.mem_ctrls0_1.readEnergy              165890760                       # Energy for read commands per rank (pJ)
system.mem_ctrls0_1.writeEnergy              17607060                       # Energy for write commands per rank (pJ)
system.mem_ctrls0_1.refreshEnergy        8037032640.000002                       # Energy for refresh commands per rank (pJ)
system.mem_ctrls0_1.actBackEnergy          2469319230                       # Energy for active background per rank (pJ)
system.mem_ctrls0_1.preBackEnergy           485051520                       # Energy for precharge background per rank (pJ)
system.mem_ctrls0_1.actPowerDownEnergy    16990732140                       # Energy for active power-down per rank (pJ)
system.mem_ctrls0_1.prePowerDownEnergy    12385599360                       # Energy for precharge power-down per rank (pJ)
system.mem_ctrls0_1.selfRefreshEnergy    225129216510                       # Energy for self refresh per rank (pJ)
system.mem_ctrls0_1.totalEnergy          265814595615                       # Total energy per rank (pJ)
system.mem_ctrls0_1.averagePower           264.204037                       # Core power per rank (mW)
system.mem_ctrls0_1.totalIdleTime        999406785769                       # Total Idle time Per DRAM Rank
system.mem_ctrls0_1.memoryStateTime::IDLE    981018260                       # Time in different power states
system.mem_ctrls0_1.memoryStateTime::REF   3421336000                       # Time in different power states
system.mem_ctrls0_1.memoryStateTime::SREF 929898531942                       # Time in different power states
system.mem_ctrls0_1.memoryStateTime::PRE_PDN  32254226410                       # Time in different power states
system.mem_ctrls0_1.memoryStateTime::ACT   2280293163                       # Time in different power states
system.mem_ctrls0_1.memoryStateTime::ACT_PDN  37260481568                       # Time in different power states
system.mem_ctrls1.pwrStateResidencyTicks::UNDEFINED 176557380009210                       # Cumulative time (in ticks) in various power states
system.mem_ctrls1.bytes_read::cpu.inst            192                       # Number of bytes read from this memory
system.mem_ctrls1.bytes_read::cpu.data            128                       # Number of bytes read from this memory
system.mem_ctrls1.bytes_read::switch_cpus.inst        47424                       # Number of bytes read from this memory
system.mem_ctrls1.bytes_read::switch_cpus.data      2441216                       # Number of bytes read from this memory
system.mem_ctrls1.bytes_read::switch_cpus_1.inst        11264                       # Number of bytes read from this memory
system.mem_ctrls1.bytes_read::switch_cpus_1.data       419328                       # Number of bytes read from this memory
system.mem_ctrls1.bytes_read::total           2919552                       # Number of bytes read from this memory
system.mem_ctrls1.bytes_inst_read::cpu.inst          192                       # Number of instructions bytes read from this memory
system.mem_ctrls1.bytes_inst_read::switch_cpus.inst        47424                       # Number of instructions bytes read from this memory
system.mem_ctrls1.bytes_inst_read::switch_cpus_1.inst        11264                       # Number of instructions bytes read from this memory
system.mem_ctrls1.bytes_inst_read::total        58880                       # Number of instructions bytes read from this memory
system.mem_ctrls1.bytes_written::writebacks       411904                       # Number of bytes written to this memory
system.mem_ctrls1.bytes_written::total         411904                       # Number of bytes written to this memory
system.mem_ctrls1.num_reads::cpu.inst               3                       # Number of read requests responded to by this memory
system.mem_ctrls1.num_reads::cpu.data               2                       # Number of read requests responded to by this memory
system.mem_ctrls1.num_reads::switch_cpus.inst          741                       # Number of read requests responded to by this memory
system.mem_ctrls1.num_reads::switch_cpus.data        38144                       # Number of read requests responded to by this memory
system.mem_ctrls1.num_reads::switch_cpus_1.inst          176                       # Number of read requests responded to by this memory
system.mem_ctrls1.num_reads::switch_cpus_1.data         6552                       # Number of read requests responded to by this memory
system.mem_ctrls1.num_reads::total              45618                       # Number of read requests responded to by this memory
system.mem_ctrls1.num_writes::writebacks         6436                       # Number of write requests responded to by this memory
system.mem_ctrls1.num_writes::total              6436                       # Number of write requests responded to by this memory
system.mem_ctrls1.bw_read::cpu.inst               191                       # Total read bandwidth from this memory (bytes/s)
system.mem_ctrls1.bw_read::cpu.data               127                       # Total read bandwidth from this memory (bytes/s)
system.mem_ctrls1.bw_read::switch_cpus.inst        47137                       # Total read bandwidth from this memory (bytes/s)
system.mem_ctrls1.bw_read::switch_cpus.data      2426425                       # Total read bandwidth from this memory (bytes/s)
system.mem_ctrls1.bw_read::switch_cpus_1.inst        11196                       # Total read bandwidth from this memory (bytes/s)
system.mem_ctrls1.bw_read::switch_cpus_1.data       416787                       # Total read bandwidth from this memory (bytes/s)
system.mem_ctrls1.bw_read::total              2901863                       # Total read bandwidth from this memory (bytes/s)
system.mem_ctrls1.bw_inst_read::cpu.inst          191                       # Instruction read bandwidth from this memory (bytes/s)
system.mem_ctrls1.bw_inst_read::switch_cpus.inst        47137                       # Instruction read bandwidth from this memory (bytes/s)
system.mem_ctrls1.bw_inst_read::switch_cpus_1.inst        11196                       # Instruction read bandwidth from this memory (bytes/s)
system.mem_ctrls1.bw_inst_read::total           58523                       # Instruction read bandwidth from this memory (bytes/s)
system.mem_ctrls1.bw_write::writebacks         409408                       # Write bandwidth from this memory (bytes/s)
system.mem_ctrls1.bw_write::total              409408                       # Write bandwidth from this memory (bytes/s)
system.mem_ctrls1.bw_total::writebacks         409408                       # Total bandwidth to/from this memory (bytes/s)
system.mem_ctrls1.bw_total::cpu.inst              191                       # Total bandwidth to/from this memory (bytes/s)
system.mem_ctrls1.bw_total::cpu.data              127                       # Total bandwidth to/from this memory (bytes/s)
system.mem_ctrls1.bw_total::switch_cpus.inst        47137                       # Total bandwidth to/from this memory (bytes/s)
system.mem_ctrls1.bw_total::switch_cpus.data      2426425                       # Total bandwidth to/from this memory (bytes/s)
system.mem_ctrls1.bw_total::switch_cpus_1.inst        11196                       # Total bandwidth to/from this memory (bytes/s)
system.mem_ctrls1.bw_total::switch_cpus_1.data       416787                       # Total bandwidth to/from this memory (bytes/s)
system.mem_ctrls1.bw_total::total             3311271                       # Total bandwidth to/from this memory (bytes/s)
system.mem_ctrls1.readReqs                      45618                       # Number of read requests accepted
system.mem_ctrls1.writeReqs                      6436                       # Number of write requests accepted
system.mem_ctrls1.readBursts                    45618                       # Number of DRAM read bursts, including those serviced by the write queue
system.mem_ctrls1.writeBursts                    6436                       # Number of DRAM write bursts, including those merged in the write queue
system.mem_ctrls1.bytesReadDRAM               2869632                       # Total number of bytes read from DRAM
system.mem_ctrls1.bytesReadWrQ                  49920                       # Total number of bytes read from write queue
system.mem_ctrls1.bytesWritten                 410176                       # Total number of bytes written to DRAM
system.mem_ctrls1.bytesReadSys                2919552                       # Total read bytes from the system interface side
system.mem_ctrls1.bytesWrittenSys              411904                       # Total written bytes from the system interface side
system.mem_ctrls1.servicedByWrQ                   780                       # Number of DRAM read bursts serviced by the write queue
system.mem_ctrls1.mergedWrBursts                    2                       # Number of DRAM write bursts merged with an existing one
system.mem_ctrls1.neitherReadNorWriteReqs            0                       # Number of requests that are neither read nor write
system.mem_ctrls1.perBankRdBursts::0             2921                       # Per bank write bursts
system.mem_ctrls1.perBankRdBursts::1             2371                       # Per bank write bursts
system.mem_ctrls1.perBankRdBursts::2             2513                       # Per bank write bursts
system.mem_ctrls1.perBankRdBursts::3             2680                       # Per bank write bursts
system.mem_ctrls1.perBankRdBursts::4             2508                       # Per bank write bursts
system.mem_ctrls1.perBankRdBursts::5             2577                       # Per bank write bursts
system.mem_ctrls1.perBankRdBursts::6             3183                       # Per bank write bursts
system.mem_ctrls1.perBankRdBursts::7             2786                       # Per bank write bursts
system.mem_ctrls1.perBankRdBursts::8             2951                       # Per bank write bursts
system.mem_ctrls1.perBankRdBursts::9             2763                       # Per bank write bursts
system.mem_ctrls1.perBankRdBursts::10            2844                       # Per bank write bursts
system.mem_ctrls1.perBankRdBursts::11            2732                       # Per bank write bursts
system.mem_ctrls1.perBankRdBursts::12            2903                       # Per bank write bursts
system.mem_ctrls1.perBankRdBursts::13            2733                       # Per bank write bursts
system.mem_ctrls1.perBankRdBursts::14            3594                       # Per bank write bursts
system.mem_ctrls1.perBankRdBursts::15            2779                       # Per bank write bursts
system.mem_ctrls1.perBankWrBursts::0              505                       # Per bank write bursts
system.mem_ctrls1.perBankWrBursts::1              198                       # Per bank write bursts
system.mem_ctrls1.perBankWrBursts::2              295                       # Per bank write bursts
system.mem_ctrls1.perBankWrBursts::3              264                       # Per bank write bursts
system.mem_ctrls1.perBankWrBursts::4              323                       # Per bank write bursts
system.mem_ctrls1.perBankWrBursts::5              221                       # Per bank write bursts
system.mem_ctrls1.perBankWrBursts::6              784                       # Per bank write bursts
system.mem_ctrls1.perBankWrBursts::7              395                       # Per bank write bursts
system.mem_ctrls1.perBankWrBursts::8              510                       # Per bank write bursts
system.mem_ctrls1.perBankWrBursts::9              228                       # Per bank write bursts
system.mem_ctrls1.perBankWrBursts::10             301                       # Per bank write bursts
system.mem_ctrls1.perBankWrBursts::11             347                       # Per bank write bursts
system.mem_ctrls1.perBankWrBursts::12             386                       # Per bank write bursts
system.mem_ctrls1.perBankWrBursts::13             300                       # Per bank write bursts
system.mem_ctrls1.perBankWrBursts::14             971                       # Per bank write bursts
system.mem_ctrls1.perBankWrBursts::15             381                       # Per bank write bursts
system.mem_ctrls1.numRdRetry                        0                       # Number of times read queue was full causing retry
system.mem_ctrls1.numWrRetry                        0                       # Number of times write queue was full causing retry
system.mem_ctrls1.totGap                 1006090921647                       # Total gap between requests
system.mem_ctrls1.readPktSize::0                    0                       # Read request sizes (log2)
system.mem_ctrls1.readPktSize::1                    0                       # Read request sizes (log2)
system.mem_ctrls1.readPktSize::2                    0                       # Read request sizes (log2)
system.mem_ctrls1.readPktSize::3                    0                       # Read request sizes (log2)
system.mem_ctrls1.readPktSize::4                    0                       # Read request sizes (log2)
system.mem_ctrls1.readPktSize::5                    0                       # Read request sizes (log2)
system.mem_ctrls1.readPktSize::6                45618                       # Read request sizes (log2)
system.mem_ctrls1.writePktSize::0                   0                       # Write request sizes (log2)
system.mem_ctrls1.writePktSize::1                   0                       # Write request sizes (log2)
system.mem_ctrls1.writePktSize::2                   0                       # Write request sizes (log2)
system.mem_ctrls1.writePktSize::3                   0                       # Write request sizes (log2)
system.mem_ctrls1.writePktSize::4                   0                       # Write request sizes (log2)
system.mem_ctrls1.writePktSize::5                   0                       # Write request sizes (log2)
system.mem_ctrls1.writePktSize::6                6436                       # Write request sizes (log2)
system.mem_ctrls1.rdQLenPdf::0                  44617                       # What read queue length does an incoming req see
system.mem_ctrls1.rdQLenPdf::1                    211                       # What read queue length does an incoming req see
system.mem_ctrls1.rdQLenPdf::2                     10                       # What read queue length does an incoming req see
system.mem_ctrls1.rdQLenPdf::3                      0                       # What read queue length does an incoming req see
system.mem_ctrls1.rdQLenPdf::4                      0                       # What read queue length does an incoming req see
system.mem_ctrls1.rdQLenPdf::5                      0                       # What read queue length does an incoming req see
system.mem_ctrls1.rdQLenPdf::6                      0                       # What read queue length does an incoming req see
system.mem_ctrls1.rdQLenPdf::7                      0                       # What read queue length does an incoming req see
system.mem_ctrls1.rdQLenPdf::8                      0                       # What read queue length does an incoming req see
system.mem_ctrls1.rdQLenPdf::9                      0                       # What read queue length does an incoming req see
system.mem_ctrls1.rdQLenPdf::10                     0                       # What read queue length does an incoming req see
system.mem_ctrls1.rdQLenPdf::11                     0                       # What read queue length does an incoming req see
system.mem_ctrls1.rdQLenPdf::12                     0                       # What read queue length does an incoming req see
system.mem_ctrls1.rdQLenPdf::13                     0                       # What read queue length does an incoming req see
system.mem_ctrls1.rdQLenPdf::14                     0                       # What read queue length does an incoming req see
system.mem_ctrls1.rdQLenPdf::15                     0                       # What read queue length does an incoming req see
system.mem_ctrls1.rdQLenPdf::16                     0                       # What read queue length does an incoming req see
system.mem_ctrls1.rdQLenPdf::17                     0                       # What read queue length does an incoming req see
system.mem_ctrls1.rdQLenPdf::18                     0                       # What read queue length does an incoming req see
system.mem_ctrls1.rdQLenPdf::19                     0                       # What read queue length does an incoming req see
system.mem_ctrls1.rdQLenPdf::20                     0                       # What read queue length does an incoming req see
system.mem_ctrls1.rdQLenPdf::21                     0                       # What read queue length does an incoming req see
system.mem_ctrls1.rdQLenPdf::22                     0                       # What read queue length does an incoming req see
system.mem_ctrls1.rdQLenPdf::23                     0                       # What read queue length does an incoming req see
system.mem_ctrls1.rdQLenPdf::24                     0                       # What read queue length does an incoming req see
system.mem_ctrls1.rdQLenPdf::25                     0                       # What read queue length does an incoming req see
system.mem_ctrls1.rdQLenPdf::26                     0                       # What read queue length does an incoming req see
system.mem_ctrls1.rdQLenPdf::27                     0                       # What read queue length does an incoming req see
system.mem_ctrls1.rdQLenPdf::28                     0                       # What read queue length does an incoming req see
system.mem_ctrls1.rdQLenPdf::29                     0                       # What read queue length does an incoming req see
system.mem_ctrls1.rdQLenPdf::30                     0                       # What read queue length does an incoming req see
system.mem_ctrls1.rdQLenPdf::31                     0                       # What read queue length does an incoming req see
system.mem_ctrls1.wrQLenPdf::0                      2                       # What write queue length does an incoming req see
system.mem_ctrls1.wrQLenPdf::1                      2                       # What write queue length does an incoming req see
system.mem_ctrls1.wrQLenPdf::2                      2                       # What write queue length does an incoming req see
system.mem_ctrls1.wrQLenPdf::3                      2                       # What write queue length does an incoming req see
system.mem_ctrls1.wrQLenPdf::4                      2                       # What write queue length does an incoming req see
system.mem_ctrls1.wrQLenPdf::5                      2                       # What write queue length does an incoming req see
system.mem_ctrls1.wrQLenPdf::6                      2                       # What write queue length does an incoming req see
system.mem_ctrls1.wrQLenPdf::7                      2                       # What write queue length does an incoming req see
system.mem_ctrls1.wrQLenPdf::8                      2                       # What write queue length does an incoming req see
system.mem_ctrls1.wrQLenPdf::9                      2                       # What write queue length does an incoming req see
system.mem_ctrls1.wrQLenPdf::10                     2                       # What write queue length does an incoming req see
system.mem_ctrls1.wrQLenPdf::11                     2                       # What write queue length does an incoming req see
system.mem_ctrls1.wrQLenPdf::12                     2                       # What write queue length does an incoming req see
system.mem_ctrls1.wrQLenPdf::13                     2                       # What write queue length does an incoming req see
system.mem_ctrls1.wrQLenPdf::14                     2                       # What write queue length does an incoming req see
system.mem_ctrls1.wrQLenPdf::15                   336                       # What write queue length does an incoming req see
system.mem_ctrls1.wrQLenPdf::16                   338                       # What write queue length does an incoming req see
system.mem_ctrls1.wrQLenPdf::17                   355                       # What write queue length does an incoming req see
system.mem_ctrls1.wrQLenPdf::18                   357                       # What write queue length does an incoming req see
system.mem_ctrls1.wrQLenPdf::19                   359                       # What write queue length does an incoming req see
system.mem_ctrls1.wrQLenPdf::20                   360                       # What write queue length does an incoming req see
system.mem_ctrls1.wrQLenPdf::21                   359                       # What write queue length does an incoming req see
system.mem_ctrls1.wrQLenPdf::22                   359                       # What write queue length does an incoming req see
system.mem_ctrls1.wrQLenPdf::23                   358                       # What write queue length does an incoming req see
system.mem_ctrls1.wrQLenPdf::24                   359                       # What write queue length does an incoming req see
system.mem_ctrls1.wrQLenPdf::25                   356                       # What write queue length does an incoming req see
system.mem_ctrls1.wrQLenPdf::26                   356                       # What write queue length does an incoming req see
system.mem_ctrls1.wrQLenPdf::27                   358                       # What write queue length does an incoming req see
system.mem_ctrls1.wrQLenPdf::28                   357                       # What write queue length does an incoming req see
system.mem_ctrls1.wrQLenPdf::29                   359                       # What write queue length does an incoming req see
system.mem_ctrls1.wrQLenPdf::30                   358                       # What write queue length does an incoming req see
system.mem_ctrls1.wrQLenPdf::31                   356                       # What write queue length does an incoming req see
system.mem_ctrls1.wrQLenPdf::32                   356                       # What write queue length does an incoming req see
system.mem_ctrls1.wrQLenPdf::33                     7                       # What write queue length does an incoming req see
system.mem_ctrls1.wrQLenPdf::34                     1                       # What write queue length does an incoming req see
system.mem_ctrls1.wrQLenPdf::35                     0                       # What write queue length does an incoming req see
system.mem_ctrls1.wrQLenPdf::36                     0                       # What write queue length does an incoming req see
system.mem_ctrls1.wrQLenPdf::37                     0                       # What write queue length does an incoming req see
system.mem_ctrls1.wrQLenPdf::38                     0                       # What write queue length does an incoming req see
system.mem_ctrls1.wrQLenPdf::39                     0                       # What write queue length does an incoming req see
system.mem_ctrls1.wrQLenPdf::40                     0                       # What write queue length does an incoming req see
system.mem_ctrls1.wrQLenPdf::41                     0                       # What write queue length does an incoming req see
system.mem_ctrls1.wrQLenPdf::42                     0                       # What write queue length does an incoming req see
system.mem_ctrls1.wrQLenPdf::43                     0                       # What write queue length does an incoming req see
system.mem_ctrls1.wrQLenPdf::44                     0                       # What write queue length does an incoming req see
system.mem_ctrls1.wrQLenPdf::45                     0                       # What write queue length does an incoming req see
system.mem_ctrls1.wrQLenPdf::46                     0                       # What write queue length does an incoming req see
system.mem_ctrls1.wrQLenPdf::47                     0                       # What write queue length does an incoming req see
system.mem_ctrls1.wrQLenPdf::48                     0                       # What write queue length does an incoming req see
system.mem_ctrls1.wrQLenPdf::49                     0                       # What write queue length does an incoming req see
system.mem_ctrls1.wrQLenPdf::50                     0                       # What write queue length does an incoming req see
system.mem_ctrls1.wrQLenPdf::51                     0                       # What write queue length does an incoming req see
system.mem_ctrls1.wrQLenPdf::52                     0                       # What write queue length does an incoming req see
system.mem_ctrls1.wrQLenPdf::53                     0                       # What write queue length does an incoming req see
system.mem_ctrls1.wrQLenPdf::54                     0                       # What write queue length does an incoming req see
system.mem_ctrls1.wrQLenPdf::55                     0                       # What write queue length does an incoming req see
system.mem_ctrls1.wrQLenPdf::56                     0                       # What write queue length does an incoming req see
system.mem_ctrls1.wrQLenPdf::57                     0                       # What write queue length does an incoming req see
system.mem_ctrls1.wrQLenPdf::58                     0                       # What write queue length does an incoming req see
system.mem_ctrls1.wrQLenPdf::59                     0                       # What write queue length does an incoming req see
system.mem_ctrls1.wrQLenPdf::60                     0                       # What write queue length does an incoming req see
system.mem_ctrls1.wrQLenPdf::61                     0                       # What write queue length does an incoming req see
system.mem_ctrls1.wrQLenPdf::62                     0                       # What write queue length does an incoming req see
system.mem_ctrls1.wrQLenPdf::63                     0                       # What write queue length does an incoming req see
system.mem_ctrls1.bytesPerActivate::samples        22157                       # Bytes accessed per row activation
system.mem_ctrls1.bytesPerActivate::mean   148.025816                       # Bytes accessed per row activation
system.mem_ctrls1.bytesPerActivate::gmean   106.476610                       # Bytes accessed per row activation
system.mem_ctrls1.bytesPerActivate::stdev   174.179103                       # Bytes accessed per row activation
system.mem_ctrls1.bytesPerActivate::0-127        12605     56.89%     56.89% # Bytes accessed per row activation
system.mem_ctrls1.bytesPerActivate::128-255         6510     29.38%     86.27% # Bytes accessed per row activation
system.mem_ctrls1.bytesPerActivate::256-383         1254      5.66%     91.93% # Bytes accessed per row activation
system.mem_ctrls1.bytesPerActivate::384-511          829      3.74%     95.67% # Bytes accessed per row activation
system.mem_ctrls1.bytesPerActivate::512-639          176      0.79%     96.47% # Bytes accessed per row activation
system.mem_ctrls1.bytesPerActivate::640-767          111      0.50%     96.97% # Bytes accessed per row activation
system.mem_ctrls1.bytesPerActivate::768-895          111      0.50%     97.47% # Bytes accessed per row activation
system.mem_ctrls1.bytesPerActivate::896-1023          162      0.73%     98.20% # Bytes accessed per row activation
system.mem_ctrls1.bytesPerActivate::1024-1151          399      1.80%    100.00% # Bytes accessed per row activation
system.mem_ctrls1.bytesPerActivate::total        22157                       # Bytes accessed per row activation
system.mem_ctrls1.rdPerTurnAround::samples          357                       # Reads before turning the bus around for writes
system.mem_ctrls1.rdPerTurnAround::mean    125.565826                       # Reads before turning the bus around for writes
system.mem_ctrls1.rdPerTurnAround::stdev  1484.074162                       # Reads before turning the bus around for writes
system.mem_ctrls1.rdPerTurnAround::0-1023          356     99.72%     99.72% # Reads before turning the bus around for writes
system.mem_ctrls1.rdPerTurnAround::27648-28671            1      0.28%    100.00% # Reads before turning the bus around for writes
system.mem_ctrls1.rdPerTurnAround::total          357                       # Reads before turning the bus around for writes
system.mem_ctrls1.wrPerTurnAround::samples          357                       # Writes before turning the bus around for reads
system.mem_ctrls1.wrPerTurnAround::mean     17.952381                       # Writes before turning the bus around for reads
system.mem_ctrls1.wrPerTurnAround::gmean    17.942940                       # Writes before turning the bus around for reads
system.mem_ctrls1.wrPerTurnAround::stdev     0.571295                       # Writes before turning the bus around for reads
system.mem_ctrls1.wrPerTurnAround::16              21      5.88%      5.88% # Writes before turning the bus around for reads
system.mem_ctrls1.wrPerTurnAround::17               2      0.56%      6.44% # Writes before turning the bus around for reads
system.mem_ctrls1.wrPerTurnAround::18             309     86.55%     93.00% # Writes before turning the bus around for reads
system.mem_ctrls1.wrPerTurnAround::19              23      6.44%     99.44% # Writes before turning the bus around for reads
system.mem_ctrls1.wrPerTurnAround::20               2      0.56%    100.00% # Writes before turning the bus around for reads
system.mem_ctrls1.wrPerTurnAround::total          357                       # Writes before turning the bus around for reads
system.mem_ctrls1.totQLat                  3941238500                       # Total ticks spent queuing
system.mem_ctrls1.totMemAccLat             4781951000                       # Total ticks spent from burst creation until serviced by the DRAM
system.mem_ctrls1.totBusLat                 224190000                       # Total ticks spent in databus transfers
system.mem_ctrls1.avgQLat                    87899.52                       # Average queueing delay per DRAM burst
system.mem_ctrls1.avgBusLat                   5000.00                       # Average bus latency per DRAM burst
system.mem_ctrls1.avgMemAccLat              106649.52                       # Average memory access latency per DRAM burst
system.mem_ctrls1.avgRdBW                        2.85                       # Average DRAM read bandwidth in MiByte/s
system.mem_ctrls1.avgWrBW                        0.41                       # Average achieved write bandwidth in MiByte/s
system.mem_ctrls1.avgRdBWSys                     2.90                       # Average system read bandwidth in MiByte/s
system.mem_ctrls1.avgWrBWSys                     0.41                       # Average system write bandwidth in MiByte/s
system.mem_ctrls1.peakBW                     12800.00                       # Theoretical peak bandwidth in MiByte/s
system.mem_ctrls1.busUtil                        0.03                       # Data bus utilization in percentage
system.mem_ctrls1.busUtilRead                    0.02                       # Data bus utilization in percentage for reads
system.mem_ctrls1.busUtilWrite                   0.00                       # Data bus utilization in percentage for writes
system.mem_ctrls1.avgRdQLen                      1.00                       # Average read queue length when enqueuing
system.mem_ctrls1.avgWrQLen                     13.87                       # Average write queue length when enqueuing
system.mem_ctrls1.readRowHits                   27795                       # Number of row buffer hits during reads
system.mem_ctrls1.writeRowHits                   1295                       # Number of row buffer hits during writes
system.mem_ctrls1.readRowHitRate                61.99                       # Row buffer hit rate for reads
system.mem_ctrls1.writeRowHitRate               20.13                       # Row buffer hit rate for writes
system.mem_ctrls1.avgGap                  19327831.13                       # Average gap between requests
system.mem_ctrls1.pageHitRate                   56.74                       # Row buffer hit rate, read and write combined
system.mem_ctrls1_0.actEnergy                72506700                       # Energy for activate commands per rank (pJ)
system.mem_ctrls1_0.preEnergy                38538225                       # Energy for precharge commands per rank (pJ)
system.mem_ctrls1_0.readEnergy              153788460                       # Energy for read commands per rank (pJ)
system.mem_ctrls1_0.writeEnergy              15581700                       # Energy for write commands per rank (pJ)
system.mem_ctrls1_0.refreshEnergy        6777020640.000002                       # Energy for refresh commands per rank (pJ)
system.mem_ctrls1_0.actBackEnergy          2180133150                       # Energy for active background per rank (pJ)
system.mem_ctrls1_0.preBackEnergy           412161600                       # Energy for precharge background per rank (pJ)
system.mem_ctrls1_0.actPowerDownEnergy    14225169660                       # Energy for active power-down per rank (pJ)
system.mem_ctrls1_0.prePowerDownEnergy    10243515840                       # Energy for precharge power-down per rank (pJ)
system.mem_ctrls1_0.selfRefreshEnergy    227854663500                       # Energy for self refresh per rank (pJ)
system.mem_ctrls1_0.totalEnergy          261975428295                       # Total energy per rank (pJ)
system.mem_ctrls1_0.averagePower           260.388132                       # Core power per rank (mW)
system.mem_ctrls1_0.totalIdleTime        1000214106644                       # Total Idle time Per DRAM Rank
system.mem_ctrls1_0.memoryStateTime::IDLE    837869476                       # Time in different power states
system.mem_ctrls1_0.memoryStateTime::REF   2885276000                       # Time in different power states
system.mem_ctrls1_0.memoryStateTime::SREF 942364941593                       # Time in different power states
system.mem_ctrls1_0.memoryStateTime::PRE_PDN  26675839997                       # Time in different power states
system.mem_ctrls1_0.memoryStateTime::ACT   2136378259                       # Time in different power states
system.mem_ctrls1_0.memoryStateTime::ACT_PDN  31195582018                       # Time in different power states
system.mem_ctrls1_1.actEnergy                85694280                       # Energy for activate commands per rank (pJ)
system.mem_ctrls1_1.preEnergy                45547590                       # Energy for precharge commands per rank (pJ)
system.mem_ctrls1_1.readEnergy              166354860                       # Energy for read commands per rank (pJ)
system.mem_ctrls1_1.writeEnergy              17873280                       # Energy for write commands per rank (pJ)
system.mem_ctrls1_1.refreshEnergy        8110174800.000002                       # Energy for refresh commands per rank (pJ)
system.mem_ctrls1_1.actBackEnergy          2512750950                       # Energy for active background per rank (pJ)
system.mem_ctrls1_1.preBackEnergy           492425280                       # Energy for precharge background per rank (pJ)
system.mem_ctrls1_1.actPowerDownEnergy    17042864340                       # Energy for active power-down per rank (pJ)
system.mem_ctrls1_1.prePowerDownEnergy    12488217600                       # Energy for precharge power-down per rank (pJ)
system.mem_ctrls1_1.selfRefreshEnergy    225042701715                       # Energy for self refresh per rank (pJ)
system.mem_ctrls1_1.totalEnergy          266008239555                       # Total energy per rank (pJ)
system.mem_ctrls1_1.averagePower           264.396507                       # Core power per rank (mW)
system.mem_ctrls1_1.totalIdleTime        999290289534                       # Total Idle time Per DRAM Rank
system.mem_ctrls1_1.memoryStateTime::IDLE   1001547540                       # Time in different power states
system.mem_ctrls1_1.memoryStateTime::REF   3452564000                       # Time in different power states
system.mem_ctrls1_1.memoryStateTime::SREF 929398950593                       # Time in different power states
system.mem_ctrls1_1.memoryStateTime::PRE_PDN  32521461707                       # Time in different power states
system.mem_ctrls1_1.memoryStateTime::ACT   2346576186                       # Time in different power states
system.mem_ctrls1_1.memoryStateTime::ACT_PDN  37374787317                       # Time in different power states
system.pwrStateResidencyTicks::UNDEFINED 176557380009210                       # Cumulative time (in ticks) in various power states
system.cpu.branchPred.lookups                       4                       # Number of BP lookups
system.cpu.branchPred.condPredicted                 2                       # Number of conditional branches predicted
system.cpu.branchPred.condIncorrect                 1                       # Number of conditional branches incorrect
system.cpu.branchPred.BTBLookups                    2                       # Number of BTB lookups
system.cpu.branchPred.BTBHits                       0                       # Number of BTB hits
system.cpu.branchPred.BTBCorrect                    0                       # Number of correct BTB predictions (this stat may not work properly.
system.cpu.branchPred.BTBHitPct              0.000000                       # BTB Hit Percentage
system.cpu.branchPred.usedRAS                       0                       # Number of times the RAS was used to get a target.
system.cpu.branchPred.RASInCorrect                  0                       # Number of incorrect RAS predictions.
system.cpu.branchPred.indirectLookups               0                       # Number of indirect predictor lookups.
system.cpu.branchPred.indirectHits                  0                       # Number of indirect target hits.
system.cpu.branchPred.indirectMisses                0                       # Number of indirect misses.
system.cpu.branchPredindirectMispredicted            0                       # Number of mispredicted indirect branches.
system.cpu_voltage_domain.voltage                   1                       # Voltage in Volts
system.cpu_clk_domain.clock                       333                       # Clock period in ticks
system.cpu.dtb.fetch_hits                           0                       # ITB hits
system.cpu.dtb.fetch_misses                         0                       # ITB misses
system.cpu.dtb.fetch_acv                            0                       # ITB acv
system.cpu.dtb.fetch_accesses                       0                       # ITB accesses
system.cpu.dtb.read_hits                           10                       # DTB read hits
system.cpu.dtb.read_misses                          0                       # DTB read misses
system.cpu.dtb.read_acv                             0                       # DTB read access violations
system.cpu.dtb.read_accesses                       10                       # DTB read accesses
system.cpu.dtb.write_hits                           0                       # DTB write hits
system.cpu.dtb.write_misses                         0                       # DTB write misses
system.cpu.dtb.write_acv                            0                       # DTB write access violations
system.cpu.dtb.write_accesses                       0                       # DTB write accesses
system.cpu.dtb.data_hits                           10                       # DTB hits
system.cpu.dtb.data_misses                          0                       # DTB misses
system.cpu.dtb.data_acv                             0                       # DTB access violations
system.cpu.dtb.data_accesses                       10                       # DTB accesses
system.cpu.itb.fetch_hits                           5                       # ITB hits
system.cpu.itb.fetch_misses                         0                       # ITB misses
system.cpu.itb.fetch_acv                            0                       # ITB acv
system.cpu.itb.fetch_accesses                       5                       # ITB accesses
system.cpu.itb.read_hits                            0                       # DTB read hits
system.cpu.itb.read_misses                          0                       # DTB read misses
system.cpu.itb.read_acv                             0                       # DTB read access violations
system.cpu.itb.read_accesses                        0                       # DTB read accesses
system.cpu.itb.write_hits                           0                       # DTB write hits
system.cpu.itb.write_misses                         0                       # DTB write misses
system.cpu.itb.write_acv                            0                       # DTB write access violations
system.cpu.itb.write_accesses                       0                       # DTB write accesses
system.cpu.itb.data_hits                            0                       # DTB hits
system.cpu.itb.data_misses                          0                       # DTB misses
system.cpu.itb.data_acv                             0                       # DTB access violations
system.cpu.itb.data_accesses                        0                       # DTB accesses
system.cpu.workload.num_syscalls                    0                       # Number of system calls
system.cpu.pwrStateResidencyTicks::ON    1006095887343                       # Cumulative time (in ticks) in various power states
system.cpu.numCycles                              567                       # number of cpu cycles simulated
system.cpu.numWorkItemsStarted                      0                       # number of work items this cpu started
system.cpu.numWorkItemsCompleted                    0                       # number of work items this cpu completed
system.cpu.fetch.icacheStallCycles                 47                       # Number of cycles fetch is stalled on an Icache miss
system.cpu.fetch.Insts                             32                       # Number of instructions fetch has processed
system.cpu.fetch.Branches                           4                       # Number of branches that fetch encountered
system.cpu.fetch.Cycles                             4                       # Number of cycles fetch has run and was not squashing or blocked
system.cpu.fetch.SquashCycles                       5                       # Number of cycles fetch has spent squashing
system.cpu.fetch.PendingDrainCycles                 7                       # Number of cycles fetch has spent waiting on pipes to drain
system.cpu.fetch.CacheLines                         5                       # Number of cache lines fetched
system.cpu.fetch.IcacheSquashes                     3                       # Number of outstanding Icache misses that were squashed
system.cpu.fetch.rateDist::samples                 60                       # Number of instructions fetched each cycle (Total)
system.cpu.fetch.rateDist::mean              0.533333                       # Number of instructions fetched each cycle (Total)
system.cpu.fetch.rateDist::stdev             2.012391                       # Number of instructions fetched each cycle (Total)
system.cpu.fetch.rateDist::underflows               0      0.00%      0.00% # Number of instructions fetched each cycle (Total)
system.cpu.fetch.rateDist::0                       56     93.33%     93.33% # Number of instructions fetched each cycle (Total)
system.cpu.fetch.rateDist::1                        0      0.00%     93.33% # Number of instructions fetched each cycle (Total)
system.cpu.fetch.rateDist::2                        0      0.00%     93.33% # Number of instructions fetched each cycle (Total)
system.cpu.fetch.rateDist::3                        0      0.00%     93.33% # Number of instructions fetched each cycle (Total)
system.cpu.fetch.rateDist::4                        0      0.00%     93.33% # Number of instructions fetched each cycle (Total)
system.cpu.fetch.rateDist::5                        0      0.00%     93.33% # Number of instructions fetched each cycle (Total)
system.cpu.fetch.rateDist::6                        0      0.00%     93.33% # Number of instructions fetched each cycle (Total)
system.cpu.fetch.rateDist::7                        0      0.00%     93.33% # Number of instructions fetched each cycle (Total)
system.cpu.fetch.rateDist::8                        4      6.67%    100.00% # Number of instructions fetched each cycle (Total)
system.cpu.fetch.rateDist::overflows                0      0.00%    100.00% # Number of instructions fetched each cycle (Total)
system.cpu.fetch.rateDist::min_value                0                       # Number of instructions fetched each cycle (Total)
system.cpu.fetch.rateDist::max_value                8                       # Number of instructions fetched each cycle (Total)
[...]
system.switch_cpus_1.iq.int_inst_queue_writes    222036111                       # Number of integer instruction queue writes
system.switch_cpus_1.iq.int_inst_queue_wakeup_accesses    205826345                       # Number of integer instruction queue wakeup accesses
system.switch_cpus_1.iq.fp_inst_queue_reads      2763547                       # Number of floating instruction queue reads
system.switch_cpus_1.iq.fp_inst_queue_writes      1435081                       # Number of floating instruction queue writes
system.switch_cpus_1.iq.fp_inst_queue_wakeup_accesses      1371873                       # Number of floating instruction queue wakeup accesses
system.switch_cpus_1.iq.int_alu_accesses    217683278                       # Number of integer alu accesses
system.switch_cpus_1.iq.fp_alu_accesses       1385553                       # Number of floating point alu accesses
system.switch_cpus_1.iew.lsq.thread0.forwLoads      2863881                       # Number of loads that had data forwarded from stores
system.switch_cpus_1.iew.lsq.thread0.invAddrLoads            0                       # Number of loads ignored due to an invalid address
system.switch_cpus_1.iew.lsq.thread0.squashedLoads      2559875                       # Number of loads squashed
system.switch_cpus_1.iew.lsq.thread0.ignoredResponses         6706                       # Number of memory responses ignored because the instruction is squashed
system.switch_cpus_1.iew.lsq.thread0.memOrderViolation        15830                       # Number of memory ordering violations
system.switch_cpus_1.iew.lsq.thread0.squashedStores       574573                       # Number of stores squashed
system.switch_cpus_1.iew.lsq.thread0.invAddrSwpfs            0                       # Number of software prefetches ignored due to an invalid address
system.switch_cpus_1.iew.lsq.thread0.blockedLoads            0                       # Number of blocked loads due to partial load-store forwarding
system.switch_cpus_1.iew.lsq.thread0.rescheduledLoads         1080                       # Number of loads that were rescheduled
system.switch_cpus_1.iew.lsq.thread0.cacheBlocked       497454                       # Number of times an access to memory failed due to the cache being blocked
system.switch_cpus_1.iew.iewIdleCycles              0                       # Number of cycles IEW is idle
system.switch_cpus_1.iew.iewSquashCycles       312402                       # Number of cycles IEW is squashing
system.switch_cpus_1.iew.iewBlockCycles       1481234                       # Number of cycles IEW is blocking
system.switch_cpus_1.iew.iewUnblockCycles      1517456                       # Number of cycles IEW is unblocking
system.switch_cpus_1.iew.iewDispatchedInsts    212907423                       # Number of instructions dispatched to IQ
system.switch_cpus_1.iew.iewDispSquashedInsts        56443                       # Number of squashed instructions skipped by dispatch
system.switch_cpus_1.iew.iewDispLoadInsts     72227350                       # Number of dispatched load instructions
system.switch_cpus_1.iew.iewDispStoreInsts     13484995                       # Number of dispatched store instructions
system.switch_cpus_1.iew.iewDispNonSpecInsts            0                       # Number of dispatched non-speculative instructions
system.switch_cpus_1.iew.iewIQFullEvents        10111                       # Number of times the IQ has become full, causing a stall
system.switch_cpus_1.iew.iewLSQFullEvents      1511269                       # Number of times the LSQ has become full, causing a stall
system.switch_cpus_1.iew.memOrderViolationEvents        15830                       # Number of memory order violations
system.switch_cpus_1.iew.predictedTakenIncorrect       215197                       # Number of branches that were predicted taken incorrectly
system.switch_cpus_1.iew.predictedNotTakenIncorrect        80704                       # Number of branches that were predicted not taken incorrectly
system.switch_cpus_1.iew.branchMispredicts       295901                       # Number of branch mispredicts detected at execute
system.switch_cpus_1.iew.iewExecutedInsts    208275862                       # Number of executed instructions
system.switch_cpus_1.iew.iewExecLoadInsts     72031882                       # Number of load instructions executed
system.switch_cpus_1.iew.iewExecSquashedInsts       536364                       # Number of squashed instructions skipped in execute
system.switch_cpus_1.iew.exec_swp                   0                       # number of swp insts executed
system.switch_cpus_1.iew.exec_nop             1179604                       # number of nop insts executed
system.switch_cpus_1.iew.exec_refs           85154153                       # number of memory reference insts executed
system.switch_cpus_1.iew.exec_branches       15124886                       # Number of branches executed
system.switch_cpus_1.iew.exec_stores         13122271                       # Number of stores executed
system.switch_cpus_1.iew.exec_rate           2.749257                       # Inst execution rate
system.switch_cpus_1.iew.wb_sent            207481435                       # cumulative count of insts sent to commit
system.switch_cpus_1.iew.wb_count           207198218                       # cumulative count of insts written-back
system.switch_cpus_1.iew.wb_producers       133746197                       # num instructions producing a value
system.switch_cpus_1.iew.wb_consumers       163134847                       # num instructions consuming a value
system.switch_cpus_1.iew.wb_rate             2.735032                       # insts written-back per cycle
system.switch_cpus_1.iew.wb_fanout           0.819851                       # average fanout of values written-back
system.switch_cpus_1.commit.commitSquashedInsts     11327797                       # The number of squashed insts skipped by commit
system.switch_cpus_1.commit.branchMispredicts       272459                       # The number of times a branch was mispredicted
system.switch_cpus_1.commit.committed_per_cycle::samples     73949735                       # Number of insts commited each cycle
system.switch_cpus_1.commit.committed_per_cycle::mean     2.718949                       # Number of insts commited each cycle
system.switch_cpus_1.commit.committed_per_cycle::stdev     3.175906                       # Number of insts commited each cycle
system.switch_cpus_1.commit.committed_per_cycle::underflows            0      0.00%      0.00% # Number of insts commited each cycle
system.switch_cpus_1.commit.committed_per_cycle::0     31369649     42.42%     42.42% # Number of insts commited each cycle
system.switch_cpus_1.commit.committed_per_cycle::1      9305374     12.58%     55.00% # Number of insts commited each cycle
system.switch_cpus_1.commit.committed_per_cycle::2      4772472      6.45%     61.46% # Number of insts commited each cycle
system.switch_cpus_1.commit.committed_per_cycle::3      3533029      4.78%     66.23% # Number of insts commited each cycle
system.switch_cpus_1.commit.committed_per_cycle::4      2688145      3.64%     69.87% # Number of insts commited each cycle
system.switch_cpus_1.commit.committed_per_cycle::5      3506816      4.74%     74.61% # Number of insts commited each cycle
system.switch_cpus_1.commit.committed_per_cycle::6      1557021      2.11%     76.72% # Number of insts commited each cycle
system.switch_cpus_1.commit.committed_per_cycle::7      3750438      5.07%     81.79% # Number of insts commited each cycle
system.switch_cpus_1.commit.committed_per_cycle::8     13466791     18.21%    100.00% # Number of insts commited each cycle
system.switch_cpus_1.commit.committed_per_cycle::overflows            0      0.00%    100.00% # Number of insts commited each cycle
system.switch_cpus_1.commit.committed_per_cycle::min_value            0                       # Number of insts commited each cycle
system.switch_cpus_1.commit.committed_per_cycle::max_value            8                       # Number of insts commited each cycle
system.switch_cpus_1.commit.committed_per_cycle::total     73949735                       # Number of insts commited each cycle
system.switch_cpus_1.commit.committedInsts    201065585                       # Number of instructions committed
system.switch_cpus_1.commit.committedOps    201065585                       # Number of ops (including micro ops) committed
system.switch_cpus_1.commit.swp_count               0                       # Number of s/w prefetches committed
system.switch_cpus_1.commit.refs             82577871                       # Number of memory references committed
system.switch_cpus_1.commit.loads            69667449                       # Number of loads committed
system.switch_cpus_1.commit.membars                 0                       # Number of memory barriers committed
system.switch_cpus_1.commit.branches         14245931                       # Number of branches committed
system.switch_cpus_1.commit.fp_insts          1340565                       # Number of committed floating point instructions.
system.switch_cpus_1.commit.int_insts       198509910                       # Number of committed integer instructions.
system.switch_cpus_1.commit.function_calls      2072159                       # Number of function calls committed.
system.switch_cpus_1.commit.op_class_0::No_OpClass      1225977      0.61%      0.61% # Class of committed instruction
system.switch_cpus_1.commit.op_class_0::IntAlu    115514890     57.45%     58.06% # Class of committed instruction
system.switch_cpus_1.commit.op_class_0::IntMult       939115      0.47%     58.53% # Class of committed instruction
system.switch_cpus_1.commit.op_class_0::IntDiv            0      0.00%     58.53% # Class of committed instruction
system.switch_cpus_1.commit.op_class_0::FloatAdd       455806      0.23%     58.75% # Class of committed instruction
system.switch_cpus_1.commit.op_class_0::FloatCmp        10815      0.01%     58.76% # Class of committed instruction
system.switch_cpus_1.commit.op_class_0::FloatCvt       252849      0.13%     58.89% # Class of committed instruction
system.switch_cpus_1.commit.op_class_0::FloatMult         8058      0.00%     58.89% # Class of committed instruction
system.switch_cpus_1.commit.op_class_0::FloatMultAcc            0      0.00%     58.89% # Class of committed instruction
system.switch_cpus_1.commit.op_class_0::FloatDiv        80200      0.04%     58.93% # Class of committed instruction
system.switch_cpus_1.commit.op_class_0::FloatMisc            0      0.00%     58.93% # Class of committed instruction
system.switch_cpus_1.commit.op_class_0::FloatSqrt            4      0.00%     58.93% # Class of committed instruction
system.switch_cpus_1.commit.op_class_0::SimdAdd            0      0.00%     58.93% # Class of committed instruction
system.switch_cpus_1.commit.op_class_0::SimdAddAcc            0      0.00%     58.93% # Class of committed instruction
system.switch_cpus_1.commit.op_class_0::SimdAlu            0      0.00%     58.93% # Class of committed instruction
system.switch_cpus_1.commit.op_class_0::SimdCmp            0      0.00%     58.93% # Class of committed instruction
system.switch_cpus_1.commit.op_class_0::SimdCvt            0      0.00%     58.93% # Class of committed instruction
system.switch_cpus_1.commit.op_class_0::SimdMisc            0      0.00%     58.93% # Class of committed instruction
system.switch_cpus_1.commit.op_class_0::SimdMult            0      0.00%     58.93% # Class of committed instruction
system.switch_cpus_1.commit.op_class_0::SimdMultAcc            0      0.00%     58.93% # Class of committed instruction
system.switch_cpus_1.commit.op_class_0::SimdShift            0      0.00%     58.93% # Class of committed instruction
system.switch_cpus_1.commit.op_class_0::SimdShiftAcc            0      0.00%     58.93% # Class of committed instruction
system.switch_cpus_1.commit.op_class_0::SimdSqrt            0      0.00%     58.93% # Class of committed instruction
system.switch_cpus_1.commit.op_class_0::SimdFloatAdd            0      0.00%     58.93% # Class of committed instruction
system.switch_cpus_1.commit.op_class_0::SimdFloatAlu            0      0.00%     58.93% # Class of committed instruction
system.switch_cpus_1.commit.op_class_0::SimdFloatCmp            0      0.00%     58.93% # Class of committed instruction
system.switch_cpus_1.commit.op_class_0::SimdFloatCvt            0      0.00%     58.93% # Class of committed instruction
system.switch_cpus_1.commit.op_class_0::SimdFloatDiv            0      0.00%     58.93% # Class of committed instruction
system.switch_cpus_1.commit.op_class_0::SimdFloatMisc            0      0.00%     58.93% # Class of committed instruction
system.switch_cpus_1.commit.op_class_0::SimdFloatMult            0      0.00%     58.93% # Class of committed instruction
system.switch_cpus_1.commit.op_class_0::SimdFloatMultAcc            0      0.00%     58.93% # Class of committed instruction
system.switch_cpus_1.commit.op_class_0::SimdFloatSqrt            0      0.00%     58.93% # Class of committed instruction
system.switch_cpus_1.commit.op_class_0::MemRead     69394564     34.51%     93.44% # Class of committed instruction
system.switch_cpus_1.commit.op_class_0::MemWrite     12650474      6.29%     99.73% # Class of committed instruction
system.switch_cpus_1.commit.op_class_0::FloatMemRead       272885      0.14%     99.87% # Class of committed instruction
system.switch_cpus_1.commit.op_class_0::FloatMemWrite       259948      0.13%    100.00% # Class of committed instruction
system.switch_cpus_1.commit.op_class_0::IprAccess            0      0.00%    100.00% # Class of committed instruction
system.switch_cpus_1.commit.op_class_0::InstPrefetch            0      0.00%    100.00% # Class of committed instruction
system.switch_cpus_1.commit.op_class_0::total    201065585                       # Class of committed instruction
system.switch_cpus_1.commit.bw_lim_events     13466791                       # number cycles where commit BW limit reached
system.switch_cpus_1.rob.rob_reads          272511195                       # The number of ROB reads
system.switch_cpus_1.rob.rob_writes         426361714                       # The number of ROB writes
system.switch_cpus_1.timesIdled                 13929                       # Number of times that the entire CPU went into an idle state and unscheduled itself
system.switch_cpus_1.idleCycles                234491                       # Total number of cycles that the CPU has spent unscheduled due to idling
system.switch_cpus_1.committedInsts         200000000                       # Number of Instructions Simulated
system.switch_cpus_1.committedOps           200000000                       # Number of Ops (including micro ops) Simulated
system.switch_cpus_1.cpi                     0.378786                       # CPI: Cycles Per Instruction
system.switch_cpus_1.cpi_total               0.378786                       # CPI: Total CPI of All Threads
system.switch_cpus_1.ipc                     2.640015                       # IPC: Instructions Per Cycle
system.switch_cpus_1.ipc_total               2.640015                       # IPC: Total IPC of All Threads
system.switch_cpus_1.int_regfile_reads      304028473                       # number of integer regfile reads
system.switch_cpus_1.int_regfile_writes     180081748                       # number of integer regfile writes
system.switch_cpus_1.fp_regfile_reads          984264                       # number of floating regfile reads
system.switch_cpus_1.fp_regfile_writes         922599                       # number of floating regfile writes
system.switch_cpus_1.misc_regfile_reads        167206                       # number of misc regfile reads
system.switch_cpus_1.misc_regfile_writes        80196                       # number of misc regfile writes
system.tol3bus.snoop_filter.tot_requests      3293718                       # Total number of requests made to the snoop filter.
system.tol3bus.snoop_filter.hit_single_requests      1644574                       # Number of requests hitting in the snoop filter with a single holder of the requested data.
system.tol3bus.snoop_filter.hit_multi_requests            0                       # Number of requests hitting in the snoop filter with multiple (>1) holders of the requested data.
system.tol3bus.snoop_filter.tot_snoops            125                       # Total number of snoops made to the snoop filter.
system.tol3bus.snoop_filter.hit_single_snoops          125                       # Number of snoops hitting in the snoop filter with a single holder of the requested data.
system.tol3bus.snoop_filter.hit_multi_snoops            0                       # Number of snoops hitting in the snoop filter with multiple (>1) holders of the requested data.
system.tol3bus.pwrStateResidencyTicks::UNDEFINED 176557380009210                       # Cumulative time (in ticks) in various power states
system.tol3bus.trans_dist::ReadResp            979026                       # Transaction distribution
system.tol3bus.trans_dist::WritebackDirty      1273691                       # Transaction distribution
system.tol3bus.trans_dist::CleanEvict          396093                       # Transaction distribution
system.tol3bus.trans_dist::UpgradeReq               3                       # Transaction distribution
system.tol3bus.trans_dist::UpgradeResp              3                       # Transaction distribution
system.tol3bus.trans_dist::ReadExReq           670118                       # Transaction distribution
system.tol3bus.trans_dist::ReadExResp          670118                       # Transaction distribution
system.tol3bus.trans_dist::ReadSharedReq       979026                       # Transaction distribution
system.tol3bus.pkt_count_system.cpu.l2.mem_side::system.l3.cpu_side      4942865                       # Packet count per connected master and slave (bytes)
system.tol3bus.pkt_size_system.cpu.l2.mem_side::system.l3.cpu_side    186243008                       # Cumulative packet size per connected master and slave (bytes)
system.tol3bus.snoops                           25213                       # Total snoops (count)
system.tol3bus.snoopTraffic                    818432                       # Total snoop traffic (bytes)
system.tol3bus.snoop_fanout::samples          1674360                       # Request fanout histogram
system.tol3bus.snoop_fanout::mean            0.000075                       # Request fanout histogram
system.tol3bus.snoop_fanout::stdev           0.008640                       # Request fanout histogram
system.tol3bus.snoop_fanout::underflows             0      0.00%      0.00% # Request fanout histogram
system.tol3bus.snoop_fanout::0                1674235     99.99%     99.99% # Request fanout histogram
system.tol3bus.snoop_fanout::1                    125      0.01%    100.00% # Request fanout histogram
system.tol3bus.snoop_fanout::overflows              0      0.00%    100.00% # Request fanout histogram
system.tol3bus.snoop_fanout::min_value              0                       # Request fanout histogram
system.tol3bus.snoop_fanout::max_value              1                       # Request fanout histogram
system.tol3bus.snoop_fanout::total            1674360                       # Request fanout histogram
system.tol3bus.reqLayer0.occupancy         1516688793                       # Layer occupancy (ticks)
system.tol3bus.reqLayer0.utilization              0.2                       # Layer utilization (%)
system.tol3bus.respLayer0.occupancy        1098330903                       # Layer occupancy (ticks)
system.tol3bus.respLayer0.utilization             0.1                       # Layer utilization (%)

---------- End Simulation Statistics   ----------
