
---------- Begin Simulation Statistics ----------
sim_seconds                                  2.766250                       # Number of seconds simulated
sim_ticks                                2766249590391                       # Number of ticks simulated
final_tick                               129719246115123                       # Number of ticks from beginning of simulation (restored from checkpoints and never reset)
sim_freq                                 1000000000000                       # Frequency of simulated ticks
host_inst_rate                                  72496                       # Simulator instruction rate (inst/s)
host_op_rate                                    72496                       # Simulator op (including micro ops) rate (op/s)
host_tick_rate                              133694693                       # Simulator tick rate (ticks/s)
host_mem_usage                                2453284                       # Number of bytes of host memory used
host_seconds                                 20690.80                       # Real time elapsed on the host
sim_insts                                  1500000009                       # Number of instructions simulated
sim_ops                                    1500000009                       # Number of ops (including micro ops) simulated
system.voltage_domain.voltage                       1                       # Voltage in Volts
system.clk_domain.clock                          1000                       # Clock period in ticks
system.mem_ctrls0.pwrStateResidencyTicks::UNDEFINED 129719246115123                       # Cumulative time (in ticks) in various power states
system.mem_ctrls0.bytes_read::cpu.inst            128                       # Number of bytes read from this memory
system.mem_ctrls0.bytes_read::switch_cpus.inst       675712                       # Number of bytes read from this memory
system.mem_ctrls0.bytes_read::switch_cpus.data    363263296                       # Number of bytes read from this memory
system.mem_ctrls0.bytes_read::switch_cpus_1.inst       504064                       # Number of bytes read from this memory
system.mem_ctrls0.bytes_read::switch_cpus_1.data    199176512                       # Number of bytes read from this memory
system.mem_ctrls0.bytes_read::total         563619712                       # Number of bytes read from this memory
system.mem_ctrls0.bytes_inst_read::cpu.inst          128                       # Number of instructions bytes read from this memory
system.mem_ctrls0.bytes_inst_read::switch_cpus.inst       675712                       # Number of instructions bytes read from this memory
system.mem_ctrls0.bytes_inst_read::switch_cpus_1.inst       504064                       # Number of instructions bytes read from this memory
system.mem_ctrls0.bytes_inst_read::total      1179904                       # Number of instructions bytes read from this memory
system.mem_ctrls0.bytes_written::writebacks    233645696                       # Number of bytes written to this memory
system.mem_ctrls0.bytes_written::total      233645696                       # Number of bytes written to this memory
system.mem_ctrls0.num_reads::cpu.inst               2                       # Number of read requests responded to by this memory
system.mem_ctrls0.num_reads::switch_cpus.inst        10558                       # Number of read requests responded to by this memory
system.mem_ctrls0.num_reads::switch_cpus.data      5675989                       # Number of read requests responded to by this memory
system.mem_ctrls0.num_reads::switch_cpus_1.inst         7876                       # Number of read requests responded to by this memory
system.mem_ctrls0.num_reads::switch_cpus_1.data      3112133                       # Number of read requests responded to by this memory
system.mem_ctrls0.num_reads::total            8806558                       # Number of read requests responded to by this memory
system.mem_ctrls0.num_writes::writebacks      3650714                       # Number of write requests responded to by this memory
system.mem_ctrls0.num_writes::total           3650714                       # Number of write requests responded to by this memory
system.mem_ctrls0.bw_read::cpu.inst                46                       # Total read bandwidth from this memory (bytes/s)
system.mem_ctrls0.bw_read::switch_cpus.inst       244270                       # Total read bandwidth from this memory (bytes/s)
system.mem_ctrls0.bw_read::switch_cpus.data    131319783                       # Total read bandwidth from this memory (bytes/s)
system.mem_ctrls0.bw_read::switch_cpus_1.inst       182219                       # Total read bandwidth from this memory (bytes/s)
system.mem_ctrls0.bw_read::switch_cpus_1.data     72002365                       # Total read bandwidth from this memory (bytes/s)
system.mem_ctrls0.bw_read::total            203748683                       # Total read bandwidth from this memory (bytes/s)
system.mem_ctrls0.bw_inst_read::cpu.inst           46                       # Instruction read bandwidth from this memory (bytes/s)
system.mem_ctrls0.bw_inst_read::switch_cpus.inst       244270                       # Instruction read bandwidth from this memory (bytes/s)
system.mem_ctrls0.bw_inst_read::switch_cpus_1.inst       182219                       # Instruction read bandwidth from this memory (bytes/s)
system.mem_ctrls0.bw_inst_read::total          426536                       # Instruction read bandwidth from this memory (bytes/s)
system.mem_ctrls0.bw_write::writebacks       84462984                       # Write bandwidth from this memory (bytes/s)
system.mem_ctrls0.bw_write::total            84462984                       # Write bandwidth from this memory (bytes/s)
system.mem_ctrls0.bw_total::writebacks       84462984                       # Total bandwidth to/from this memory (bytes/s)
system.mem_ctrls0.bw_total::cpu.inst               46                       # Total bandwidth to/from this memory (bytes/s)
system.mem_ctrls0.bw_total::switch_cpus.inst       244270                       # Total bandwidth to/from this memory (bytes/s)
system.mem_ctrls0.bw_total::switch_cpus.data    131319783                       # Total bandwidth to/from this memory (bytes/s)
system.mem_ctrls0.bw_total::switch_cpus_1.inst       182219                       # Total bandwidth to/from this memory (bytes/s)
system.mem_ctrls0.bw_total::switch_cpus_1.data     72002365                       # Total bandwidth to/from this memory (bytes/s)
system.mem_ctrls0.bw_total::total           288211668                       # Total bandwidth to/from this memory (bytes/s)
system.mem_ctrls0.readReqs                    8806558                       # Number of read requests accepted
system.mem_ctrls0.writeReqs                   3650714                       # Number of write requests accepted
system.mem_ctrls0.readBursts                  8806558                       # Number of DRAM read bursts, including those serviced by the write queue
system.mem_ctrls0.writeBursts                 3650714                       # Number of DRAM write bursts, including those merged in the write queue
system.mem_ctrls0.bytesReadDRAM             563366784                       # Total number of bytes read from DRAM
system.mem_ctrls0.bytesReadWrQ                 252928                       # Total number of bytes read from write queue
system.mem_ctrls0.bytesWritten              233644160                       # Total number of bytes written to DRAM
system.mem_ctrls0.bytesReadSys              563619712                       # Total read bytes from the system interface side
system.mem_ctrls0.bytesWrittenSys           233645696                       # Total written bytes from the system interface side
system.mem_ctrls0.servicedByWrQ                  3952                       # Number of DRAM read bursts serviced by the write queue
system.mem_ctrls0.mergedWrBursts                    0                       # Number of DRAM write bursts merged with an existing one
system.mem_ctrls0.neitherReadNorWriteReqs            0                       # Number of requests that are neither read nor write
system.mem_ctrls0.perBankRdBursts::0           543933                       # Per bank write bursts
system.mem_ctrls0.perBankRdBursts::1           556766                       # Per bank write bursts
system.mem_ctrls0.perBankRdBursts::2           555589                       # Per bank write bursts
system.mem_ctrls0.perBankRdBursts::3           537188                       # Per bank write bursts
system.mem_ctrls0.perBankRdBursts::4           536573                       # Per bank write bursts
system.mem_ctrls0.perBankRdBursts::5           558564                       # Per bank write bursts
system.mem_ctrls0.perBankRdBursts::6           565926                       # Per bank write bursts
system.mem_ctrls0.perBankRdBursts::7           563303                       # Per bank write bursts
system.mem_ctrls0.perBankRdBursts::8           574254                       # Per bank write bursts
system.mem_ctrls0.perBankRdBursts::9           553639                       # Per bank write bursts
system.mem_ctrls0.perBankRdBursts::10          535504                       # Per bank write bursts
system.mem_ctrls0.perBankRdBursts::11          536336                       # Per bank write bursts
system.mem_ctrls0.perBankRdBursts::12          532168                       # Per bank write bursts
system.mem_ctrls0.perBankRdBursts::13          551063                       # Per bank write bursts
system.mem_ctrls0.perBankRdBursts::14          554814                       # Per bank write bursts
system.mem_ctrls0.perBankRdBursts::15          546986                       # Per bank write bursts
system.mem_ctrls0.perBankWrBursts::0           226702                       # Per bank write bursts
system.mem_ctrls0.perBankWrBursts::1           226588                       # Per bank write bursts
system.mem_ctrls0.perBankWrBursts::2           231128                       # Per bank write bursts
system.mem_ctrls0.perBankWrBursts::3           218914                       # Per bank write bursts
system.mem_ctrls0.perBankWrBursts::4           220574                       # Per bank write bursts
system.mem_ctrls0.perBankWrBursts::5           232609                       # Per bank write bursts
system.mem_ctrls0.perBankWrBursts::6           239133                       # Per bank write bursts
system.mem_ctrls0.perBankWrBursts::7           237689                       # Per bank write bursts
system.mem_ctrls0.perBankWrBursts::8           238223                       # Per bank write bursts
system.mem_ctrls0.perBankWrBursts::9           226985                       # Per bank write bursts
system.mem_ctrls0.perBankWrBursts::10          222643                       # Per bank write bursts
system.mem_ctrls0.perBankWrBursts::11          226431                       # Per bank write bursts
system.mem_ctrls0.perBankWrBursts::12          218206                       # Per bank write bursts
system.mem_ctrls0.perBankWrBursts::13          226743                       # Per bank write bursts
system.mem_ctrls0.perBankWrBursts::14          232998                       # Per bank write bursts
system.mem_ctrls0.perBankWrBursts::15          225124                       # Per bank write bursts
system.mem_ctrls0.numRdRetry                        0                       # Number of times read queue was full causing retry
system.mem_ctrls0.numWrRetry                        0                       # Number of times write queue was full causing retry
system.mem_ctrls0.totGap                 2766249163485                       # Total gap between requests
system.mem_ctrls0.readPktSize::0                    0                       # Read request sizes (log2)
system.mem_ctrls0.readPktSize::1                    0                       # Read request sizes (log2)
system.mem_ctrls0.readPktSize::2                    0                       # Read request sizes (log2)
system.mem_ctrls0.readPktSize::3                    0                       # Read request sizes (log2)
system.mem_ctrls0.readPktSize::4                    0                       # Read request sizes (log2)
system.mem_ctrls0.readPktSize::5                    0                       # Read request sizes (log2)
system.mem_ctrls0.readPktSize::6              8806558                       # Read request sizes (log2)
system.mem_ctrls0.writePktSize::0                   0                       # Write request sizes (log2)
system.mem_ctrls0.writePktSize::1                   0                       # Write request sizes (log2)
system.mem_ctrls0.writePktSize::2                   0                       # Write request sizes (log2)
system.mem_ctrls0.writePktSize::3                   0                       # Write request sizes (log2)
system.mem_ctrls0.writePktSize::4                   0                       # Write request sizes (log2)
system.mem_ctrls0.writePktSize::5                   0                       # Write request sizes (log2)
system.mem_ctrls0.writePktSize::6             3650714                       # Write request sizes (log2)
system.mem_ctrls0.rdQLenPdf::0                8130979                       # What read queue length does an incoming req see
system.mem_ctrls0.rdQLenPdf::1                 590311                       # What read queue length does an incoming req see
system.mem_ctrls0.rdQLenPdf::2                  76405                       # What read queue length does an incoming req see
system.mem_ctrls0.rdQLenPdf::3                   4906                       # What read queue length does an incoming req see
system.mem_ctrls0.rdQLenPdf::4                      5                       # What read queue length does an incoming req see
system.mem_ctrls0.rdQLenPdf::5                      0                       # What read queue length does an incoming req see
system.mem_ctrls0.rdQLenPdf::6                      0                       # What read queue length does an incoming req see
system.mem_ctrls0.rdQLenPdf::7                      0                       # What read queue length does an incoming req see
system.mem_ctrls0.rdQLenPdf::8                      0                       # What read queue length does an incoming req see
system.mem_ctrls0.rdQLenPdf::9                      0                       # What read queue length does an incoming req see
system.mem_ctrls0.rdQLenPdf::10                     0                       # What read queue length does an incoming req see
system.mem_ctrls0.rdQLenPdf::11                     0                       # What read queue length does an incoming req see
system.mem_ctrls0.rdQLenPdf::12                     0                       # What read queue length does an incoming req see
system.mem_ctrls0.rdQLenPdf::13                     0                       # What read queue length does an incoming req see
system.mem_ctrls0.rdQLenPdf::14                     0                       # What read queue length does an incoming req see
system.mem_ctrls0.rdQLenPdf::15                     0                       # What read queue length does an incoming req see
system.mem_ctrls0.rdQLenPdf::16                     0                       # What read queue length does an incoming req see
system.mem_ctrls0.rdQLenPdf::17                     0                       # What read queue length does an incoming req see
system.mem_ctrls0.rdQLenPdf::18                     0                       # What read queue length does an incoming req see
system.mem_ctrls0.rdQLenPdf::19                     0                       # What read queue length does an incoming req see
system.mem_ctrls0.rdQLenPdf::20                     0                       # What read queue length does an incoming req see
system.mem_ctrls0.rdQLenPdf::21                     0                       # What read queue length does an incoming req see
system.mem_ctrls0.rdQLenPdf::22                     0                       # What read queue length does an incoming req see
system.mem_ctrls0.rdQLenPdf::23                     0                       # What read queue length does an incoming req see
system.mem_ctrls0.rdQLenPdf::24                     0                       # What read queue length does an incoming req see
system.mem_ctrls0.rdQLenPdf::25                     0                       # What read queue length does an incoming req see
system.mem_ctrls0.rdQLenPdf::26                     0                       # What read queue length does an incoming req see
system.mem_ctrls0.rdQLenPdf::27                     0                       # What read queue length does an incoming req see
system.mem_ctrls0.rdQLenPdf::28                     0                       # What read queue length does an incoming req see
system.mem_ctrls0.rdQLenPdf::29                     0                       # What read queue length does an incoming req see
system.mem_ctrls0.rdQLenPdf::30                     0                       # What read queue length does an incoming req see
system.mem_ctrls0.rdQLenPdf::31                     0                       # What read queue length does an incoming req see
system.mem_ctrls0.wrQLenPdf::0                      2                       # What write queue length does an incoming req see
system.mem_ctrls0.wrQLenPdf::1                      2                       # What write queue length does an incoming req see
system.mem_ctrls0.wrQLenPdf::2                      2                       # What write queue length does an incoming req see
system.mem_ctrls0.wrQLenPdf::3                      2                       # What write queue length does an incoming req see
system.mem_ctrls0.wrQLenPdf::4                      2                       # What write queue length does an incoming req see
system.mem_ctrls0.wrQLenPdf::5                      2                       # What write queue length does an incoming req see
system.mem_ctrls0.wrQLenPdf::6                      2                       # What write queue length does an incoming req see
system.mem_ctrls0.wrQLenPdf::7                      2                       # What write queue length does an incoming req see
system.mem_ctrls0.wrQLenPdf::8                      2                       # What write queue length does an incoming req see
system.mem_ctrls0.wrQLenPdf::9                      2                       # What write queue length does an incoming req see
system.mem_ctrls0.wrQLenPdf::10                     2                       # What write queue length does an incoming req see
system.mem_ctrls0.wrQLenPdf::11                     2                       # What write queue length does an incoming req see
system.mem_ctrls0.wrQLenPdf::12                     2                       # What write queue length does an incoming req see
system.mem_ctrls0.wrQLenPdf::13                     2                       # What write queue length does an incoming req see
system.mem_ctrls0.wrQLenPdf::14                     2                       # What write queue length does an incoming req see
system.mem_ctrls0.wrQLenPdf::15                116510                       # What write queue length does an incoming req see
system.mem_ctrls0.wrQLenPdf::16                120882                       # What write queue length does an incoming req see
system.mem_ctrls0.wrQLenPdf::17                206188                       # What write queue length does an incoming req see
system.mem_ctrls0.wrQLenPdf::18                213354                       # What write queue length does an incoming req see
system.mem_ctrls0.wrQLenPdf::19                213775                       # What write queue length does an incoming req see
system.mem_ctrls0.wrQLenPdf::20                213595                       # What write queue length does an incoming req see
system.mem_ctrls0.wrQLenPdf::21                213479                       # What write queue length does an incoming req see
system.mem_ctrls0.wrQLenPdf::22                213331                       # What write queue length does an incoming req see
system.mem_ctrls0.wrQLenPdf::23                213307                       # What write queue length does an incoming req see
system.mem_ctrls0.wrQLenPdf::24                213280                       # What write queue length does an incoming req see
system.mem_ctrls0.wrQLenPdf::25                213258                       # What write queue length does an incoming req see
system.mem_ctrls0.wrQLenPdf::26                213288                       # What write queue length does an incoming req see
system.mem_ctrls0.wrQLenPdf::27                213632                       # What write queue length does an incoming req see
system.mem_ctrls0.wrQLenPdf::28                213857                       # What write queue length does an incoming req see
system.mem_ctrls0.wrQLenPdf::29                216566                       # What write queue length does an incoming req see
system.mem_ctrls0.wrQLenPdf::30                216678                       # What write queue length does an incoming req see
system.mem_ctrls0.wrQLenPdf::31                212846                       # What write queue length does an incoming req see
system.mem_ctrls0.wrQLenPdf::32                212749                       # What write queue length does an incoming req see
system.mem_ctrls0.wrQLenPdf::33                    99                       # What write queue length does an incoming req see
system.mem_ctrls0.wrQLenPdf::34                    10                       # What write queue length does an incoming req see
system.mem_ctrls0.wrQLenPdf::35                     0                       # What write queue length does an incoming req see
system.mem_ctrls0.wrQLenPdf::36                     0                       # What write queue length does an incoming req see
system.mem_ctrls0.wrQLenPdf::37                     0                       # What write queue length does an incoming req see
system.mem_ctrls0.wrQLenPdf::38                     0                       # What write queue length does an incoming req see
system.mem_ctrls0.wrQLenPdf::39                     0                       # What write queue length does an incoming req see
system.mem_ctrls0.wrQLenPdf::40                     0                       # What write queue length does an incoming req see
system.mem_ctrls0.wrQLenPdf::41                     0                       # What write queue length does an incoming req see
system.mem_ctrls0.wrQLenPdf::42                     0                       # What write queue length does an incoming req see
system.mem_ctrls0.wrQLenPdf::43                     0                       # What write queue length does an incoming req see
system.mem_ctrls0.wrQLenPdf::44                     0                       # What write queue length does an incoming req see
system.mem_ctrls0.wrQLenPdf::45                     0                       # What write queue length does an incoming req see
system.mem_ctrls0.wrQLenPdf::46                     0                       # What write queue length does an incoming req see
system.mem_ctrls0.wrQLenPdf::47                     0                       # What write queue length does an incoming req see
system.mem_ctrls0.wrQLenPdf::48                     0                       # What write queue length does an incoming req see
system.mem_ctrls0.wrQLenPdf::49                     0                       # What write queue length does an incoming req see
system.mem_ctrls0.wrQLenPdf::50                     0                       # What write queue length does an incoming req see
system.mem_ctrls0.wrQLenPdf::51                     0                       # What write queue length does an incoming req see
system.mem_ctrls0.wrQLenPdf::52                     0                       # What write queue length does an incoming req see
system.mem_ctrls0.wrQLenPdf::53                     0                       # What write queue length does an incoming req see
system.mem_ctrls0.wrQLenPdf::54                     0                       # What write queue length does an incoming req see
system.mem_ctrls0.wrQLenPdf::55                     0                       # What write queue length does an incoming req see
system.mem_ctrls0.wrQLenPdf::56                     0                       # What write queue length does an incoming req see
system.mem_ctrls0.wrQLenPdf::57                     0                       # What write queue length does an incoming req see
system.mem_ctrls0.wrQLenPdf::58                     0                       # What write queue length does an incoming req see
system.mem_ctrls0.wrQLenPdf::59                     0                       # What write queue length does an incoming req see
system.mem_ctrls0.wrQLenPdf::60                     0                       # What write queue length does an incoming req see
system.mem_ctrls0.wrQLenPdf::61                     0                       # What write queue length does an incoming req see
system.mem_ctrls0.wrQLenPdf::62                     0                       # What write queue length does an incoming req see
system.mem_ctrls0.wrQLenPdf::63                     0                       # What write queue length does an incoming req see
system.mem_ctrls0.bytesPerActivate::samples      7693559                       # Bytes accessed per row activation
system.mem_ctrls0.bytesPerActivate::mean   103.594430                       # Bytes accessed per row activation
system.mem_ctrls0.bytesPerActivate::gmean    84.261743                       # Bytes accessed per row activation
system.mem_ctrls0.bytesPerActivate::stdev    99.692840                       # Bytes accessed per row activation
system.mem_ctrls0.bytesPerActivate::0-127      5782729     75.16%     75.16% # Bytes accessed per row activation
system.mem_ctrls0.bytesPerActivate::128-255      1303478     16.94%     92.11% # Bytes accessed per row activation
system.mem_ctrls0.bytesPerActivate::256-383       337096      4.38%     96.49% # Bytes accessed per row activation
system.mem_ctrls0.bytesPerActivate::384-511       140235      1.82%     98.31% # Bytes accessed per row activation
system.mem_ctrls0.bytesPerActivate::512-639        72051      0.94%     99.25% # Bytes accessed per row activation
system.mem_ctrls0.bytesPerActivate::640-767        32242      0.42%     99.67% # Bytes accessed per row activation
system.mem_ctrls0.bytesPerActivate::768-895        12437      0.16%     99.83% # Bytes accessed per row activation
system.mem_ctrls0.bytesPerActivate::896-1023         7011      0.09%     99.92% # Bytes accessed per row activation
system.mem_ctrls0.bytesPerActivate::1024-1151         6280      0.08%    100.00% # Bytes accessed per row activation
system.mem_ctrls0.bytesPerActivate::total      7693559                       # Bytes accessed per row activation
system.mem_ctrls0.rdPerTurnAround::samples       212711                       # Reads before turning the bus around for writes
system.mem_ctrls0.rdPerTurnAround::mean     41.382778                       # Reads before turning the bus around for writes
system.mem_ctrls0.rdPerTurnAround::gmean    39.711633                       # Reads before turning the bus around for writes
system.mem_ctrls0.rdPerTurnAround::stdev    52.399919                       # Reads before turning the bus around for writes
system.mem_ctrls0.rdPerTurnAround::0-1023       212709    100.00%    100.00% # Reads before turning the bus around for writes
system.mem_ctrls0.rdPerTurnAround::1024-2047            1      0.00%    100.00% # Reads before turning the bus around for writes
system.mem_ctrls0.rdPerTurnAround::23552-24575            1      0.00%    100.00% # Reads before turning the bus around for writes
system.mem_ctrls0.rdPerTurnAround::total       212711                       # Reads before turning the bus around for writes
system.mem_ctrls0.wrPerTurnAround::samples       212711                       # Writes before turning the bus around for reads
system.mem_ctrls0.wrPerTurnAround::mean     17.162676                       # Writes before turning the bus around for reads
system.mem_ctrls0.wrPerTurnAround::gmean    17.129831                       # Writes before turning the bus around for reads
system.mem_ctrls0.wrPerTurnAround::stdev     1.060410                       # Writes before turning the bus around for reads
system.mem_ctrls0.wrPerTurnAround::16           93239     43.83%     43.83% # Writes before turning the bus around for reads
system.mem_ctrls0.wrPerTurnAround::17            2521      1.19%     45.02% # Writes before turning the bus around for reads
system.mem_ctrls0.wrPerTurnAround::18          106938     50.27%     95.29% # Writes before turning the bus around for reads
system.mem_ctrls0.wrPerTurnAround::19            9220      4.33%     99.63% # Writes before turning the bus around for reads
system.mem_ctrls0.wrPerTurnAround::20             718      0.34%     99.96% # Writes before turning the bus around for reads
system.mem_ctrls0.wrPerTurnAround::21              67      0.03%    100.00% # Writes before turning the bus around for reads
system.mem_ctrls0.wrPerTurnAround::22               7      0.00%    100.00% # Writes before turning the bus around for reads
system.mem_ctrls0.wrPerTurnAround::24               1      0.00%    100.00% # Writes before turning the bus around for reads
system.mem_ctrls0.wrPerTurnAround::total       212711                       # Writes before turning the bus around for reads
system.mem_ctrls0.totQLat                187594523385                       # Total ticks spent queuing
system.mem_ctrls0.totMemAccLat           352643385885                       # Total ticks spent from burst creation until serviced by the DRAM
system.mem_ctrls0.totBusLat               44013030000                       # Total ticks spent in databus transfers
system.mem_ctrls0.avgQLat                    21311.25                       # Average queueing delay per DRAM burst
system.mem_ctrls0.avgBusLat                   5000.00                       # Average bus latency per DRAM burst
system.mem_ctrls0.avgMemAccLat               40061.25                       # Average memory access latency per DRAM burst
system.mem_ctrls0.avgRdBW                      203.66                       # Average DRAM read bandwidth in MiByte/s
system.mem_ctrls0.avgWrBW                       84.46                       # Average achieved write bandwidth in MiByte/s
system.mem_ctrls0.avgRdBWSys                   203.75                       # Average system read bandwidth in MiByte/s
system.mem_ctrls0.avgWrBWSys                    84.46                       # Average system write bandwidth in MiByte/s
system.mem_ctrls0.peakBW                     12800.00                       # Theoretical peak bandwidth in MiByte/s
system.mem_ctrls0.busUtil                        2.25                       # Data bus utilization in percentage
system.mem_ctrls0.busUtilRead                    1.59                       # Data bus utilization in percentage for reads
system.mem_ctrls0.busUtilWrite                   0.66                       # Data bus utilization in percentage for writes
system.mem_ctrls0.avgRdQLen                      1.05                       # Average read queue length when enqueuing
system.mem_ctrls0.avgWrQLen                     24.85                       # Average write queue length when enqueuing
system.mem_ctrls0.readRowHits                 4692230                       # Number of row buffer hits during reads
system.mem_ctrls0.writeRowHits                  67502                       # Number of row buffer hits during writes
system.mem_ctrls0.readRowHitRate                53.31                       # Row buffer hit rate for reads
system.mem_ctrls0.writeRowHitRate                1.85                       # Row buffer hit rate for writes
system.mem_ctrls0.avgGap                    222058.98                       # Average gap between requests
system.mem_ctrls0.pageHitRate                   38.22                       # Row buffer hit rate, read and write combined
system.mem_ctrls0_0.actEnergy             27538687260                       # Energy for activate commands per rank (pJ)
system.mem_ctrls0_0.preEnergy             14637144225                       # Energy for precharge commands per rank (pJ)
system.mem_ctrls0_0.readEnergy            31543391880                       # Energy for read commands per rank (pJ)
system.mem_ctrls0_0.writeEnergy            9570019140                       # Energy for write commands per rank (pJ)
system.mem_ctrls0_0.refreshEnergy        219266673600.000061                       # Energy for refresh commands per rank (pJ)
system.mem_ctrls0_0.actBackEnergy        181773559740                       # Energy for active background per rank (pJ)
system.mem_ctrls0_0.preBackEnergy          5280280800                       # Energy for precharge background per rank (pJ)
system.mem_ctrls0_0.actPowerDownEnergy   927525514650                       # Energy for active power-down per rank (pJ)
system.mem_ctrls0_0.prePowerDownEnergy   112090067040                       # Energy for precharge power-down per rank (pJ)
system.mem_ctrls0_0.selfRefreshEnergy      9704778435                       # Energy for self refresh per rank (pJ)
system.mem_ctrls0_0.totalEnergy          1538955266550                       # Total energy per rank (pJ)
system.mem_ctrls0_0.averagePower           556.332754                       # Core power per rank (mW)
system.mem_ctrls0_0.totalIdleTime        2353820311697                       # Total Idle time Per DRAM Rank
system.mem_ctrls0_0.memoryStateTime::IDLE   3447767657                       # Time in different power states
system.mem_ctrls0_0.memoryStateTime::REF  92787524000                       # Time in different power states
system.mem_ctrls0_0.memoryStateTime::SREF  27868294017                       # Time in different power states
system.mem_ctrls0_0.memoryStateTime::PRE_PDN 291897186129                       # Time in different power states
system.mem_ctrls0_0.memoryStateTime::ACT 316193599866                       # Time in different power states
system.mem_ctrls0_0.memoryStateTime::ACT_PDN 2034055218722                       # Time in different power states
system.mem_ctrls0_1.actEnergy             27393359700                       # Energy for activate commands per rank (pJ)
system.mem_ctrls0_1.preEnergy             14559912180                       # Energy for precharge commands per rank (pJ)
system.mem_ctrls0_1.readEnergy            31307214960                       # Energy for read commands per rank (pJ)
system.mem_ctrls0_1.writeEnergy            9486582660                       # Energy for write commands per rank (pJ)
system.mem_ctrls0_1.refreshEnergy        219357025680.000061                       # Energy for refresh commands per rank (pJ)
system.mem_ctrls0_1.actBackEnergy        181896110880                       # Energy for active background per rank (pJ)
system.mem_ctrls0_1.preBackEnergy          5297728320                       # Energy for precharge background per rank (pJ)
system.mem_ctrls0_1.actPowerDownEnergy   925319012160                       # Energy for active power-down per rank (pJ)
system.mem_ctrls0_1.prePowerDownEnergy   113482571520                       # Energy for precharge power-down per rank (pJ)
system.mem_ctrls0_1.selfRefreshEnergy     10075081140                       # Energy for self refresh per rank (pJ)
system.mem_ctrls0_1.totalEnergy          1538198040540                       # Total energy per rank (pJ)
system.mem_ctrls0_1.averagePower           556.059019                       # Core power per rank (mW)
system.mem_ctrls0_1.totalIdleTime        2353509757918                       # Total Idle time Per DRAM Rank
system.mem_ctrls0_1.memoryStateTime::IDLE   3525810009                       # Time in different power states
system.mem_ctrls0_1.memoryStateTime::REF  92827418000                       # Time in different power states
system.mem_ctrls0_1.memoryStateTime::SREF  28770485234                       # Time in different power states
system.mem_ctrls0_1.memoryStateTime::PRE_PDN 295530094809                       # Time in different power states
system.mem_ctrls0_1.memoryStateTime::ACT 316385780161                       # Time in different power states
system.mem_ctrls0_1.memoryStateTime::ACT_PDN 2029210002178                       # Time in different power states
system.mem_ctrls1.pwrStateResidencyTicks::UNDEFINED 129719246115123                       # Cumulative time (in ticks) in various power states
system.mem_ctrls1.bytes_read::cpu.data            128                       # Number of bytes read from this memory
system.mem_ctrls1.bytes_read::switch_cpus.inst       696640                       # Number of bytes read from this memory
system.mem_ctrls1.bytes_read::switch_cpus.data    364081472                       # Number of bytes read from this memory
system.mem_ctrls1.bytes_read::switch_cpus_1.inst       489472                       # Number of bytes read from this memory
system.mem_ctrls1.bytes_read::switch_cpus_1.data    199528576                       # Number of bytes read from this memory
system.mem_ctrls1.bytes_read::total         564796288                       # Number of bytes read from this memory
system.mem_ctrls1.bytes_inst_read::switch_cpus.inst       696640                       # Number of instructions bytes read from this memory
system.mem_ctrls1.bytes_inst_read::switch_cpus_1.inst       489472                       # Number of instructions bytes read from this memory
system.mem_ctrls1.bytes_inst_read::total      1186112                       # Number of instructions bytes read from this memory
system.mem_ctrls1.bytes_written::writebacks    233282240                       # Number of bytes written to this memory
system.mem_ctrls1.bytes_written::total      233282240                       # Number of bytes written to this memory
system.mem_ctrls1.num_reads::cpu.data               2                       # Number of read requests responded to by this memory
system.mem_ctrls1.num_reads::switch_cpus.inst        10885                       # Number of read requests responded to by this memory
system.mem_ctrls1.num_reads::switch_cpus.data      5688773                       # Number of read requests responded to by this memory
system.mem_ctrls1.num_reads::switch_cpus_1.inst         7648                       # Number of read requests responded to by this memory
system.mem_ctrls1.num_reads::switch_cpus_1.data      3117634                       # Number of read requests responded to by this memory
system.mem_ctrls1.num_reads::total            8824942                       # Number of read requests responded to by this memory
system.mem_ctrls1.num_writes::writebacks      3645035                       # Number of write requests responded to by this memory
system.mem_ctrls1.num_writes::total           3645035                       # Number of write requests responded to by this memory
system.mem_ctrls1.bw_read::cpu.data                46                       # Total read bandwidth from this memory (bytes/s)
system.mem_ctrls1.bw_read::switch_cpus.inst       251836                       # Total read bandwidth from this memory (bytes/s)
system.mem_ctrls1.bw_read::switch_cpus.data    131615554                       # Total read bandwidth from this memory (bytes/s)
system.mem_ctrls1.bw_read::switch_cpus_1.inst       176944                       # Total read bandwidth from this memory (bytes/s)
system.mem_ctrls1.bw_read::switch_cpus_1.data     72129636                       # Total read bandwidth from this memory (bytes/s)
system.mem_ctrls1.bw_read::total            204174016                       # Total read bandwidth from this memory (bytes/s)
system.mem_ctrls1.bw_inst_read::switch_cpus.inst       251836                       # Instruction read bandwidth from this memory (bytes/s)
system.mem_ctrls1.bw_inst_read::switch_cpus_1.inst       176944                       # Instruction read bandwidth from this memory (bytes/s)
system.mem_ctrls1.bw_inst_read::total          428780                       # Instruction read bandwidth from this memory (bytes/s)
system.mem_ctrls1.bw_write::writebacks       84331595                       # Write bandwidth from this memory (bytes/s)
system.mem_ctrls1.bw_write::total            84331595                       # Write bandwidth from this memory (bytes/s)
system.mem_ctrls1.bw_total::writebacks       84331595                       # Total bandwidth to/from this memory (bytes/s)
system.mem_ctrls1.bw_total::cpu.data               46                       # Total bandwidth to/from this memory (bytes/s)
system.mem_ctrls1.bw_total::switch_cpus.inst       251836                       # Total bandwidth to/from this memory (bytes/s)
system.mem_ctrls1.bw_total::switch_cpus.data    131615554                       # Total bandwidth to/from this memory (bytes/s)
system.mem_ctrls1.bw_total::switch_cpus_1.inst       176944                       # Total bandwidth to/from this memory (bytes/s)
system.mem_ctrls1.bw_total::switch_cpus_1.data     72129636                       # Total bandwidth to/from this memory (bytes/s)
system.mem_ctrls1.bw_total::total           288505611                       # Total bandwidth to/from this memory (bytes/s)
system.mem_ctrls1.readReqs                    8824942                       # Number of read requests accepted
system.mem_ctrls1.writeReqs                   3645035                       # Number of write requests accepted
system.mem_ctrls1.readBursts                  8824942                       # Number of DRAM read bursts, including those serviced by the write queue
system.mem_ctrls1.writeBursts                 3645035                       # Number of DRAM write bursts, including those merged in the write queue
system.mem_ctrls1.bytesReadDRAM             564542272                       # Total number of bytes read from DRAM
system.mem_ctrls1.bytesReadWrQ                 254016                       # Total number of bytes read from write queue
system.mem_ctrls1.bytesWritten              233281280                       # Total number of bytes written to DRAM
system.mem_ctrls1.bytesReadSys              564796288                       # Total read bytes from the system interface side
system.mem_ctrls1.bytesWrittenSys           233282240                       # Total written bytes from the system interface side
system.mem_ctrls1.servicedByWrQ                  3969                       # Number of DRAM read bursts serviced by the write queue
system.mem_ctrls1.mergedWrBursts                    0                       # Number of DRAM write bursts merged with an existing one
system.mem_ctrls1.neitherReadNorWriteReqs            0                       # Number of requests that are neither read nor write
system.mem_ctrls1.perBankRdBursts::0           546059                       # Per bank write bursts
system.mem_ctrls1.perBankRdBursts::1           553370                       # Per bank write bursts
system.mem_ctrls1.perBankRdBursts::2           552566                       # Per bank write bursts
system.mem_ctrls1.perBankRdBursts::3           542202                       # Per bank write bursts
system.mem_ctrls1.perBankRdBursts::4           534965                       # Per bank write bursts
system.mem_ctrls1.perBankRdBursts::5           555938                       # Per bank write bursts
system.mem_ctrls1.perBankRdBursts::6           570614                       # Per bank write bursts
system.mem_ctrls1.perBankRdBursts::7           562602                       # Per bank write bursts
system.mem_ctrls1.perBankRdBursts::8           578723                       # Per bank write bursts
system.mem_ctrls1.perBankRdBursts::9           559709                       # Per bank write bursts
system.mem_ctrls1.perBankRdBursts::10          538081                       # Per bank write bursts
system.mem_ctrls1.perBankRdBursts::11          540229                       # Per bank write bursts
system.mem_ctrls1.perBankRdBursts::12          535336                       # Per bank write bursts
system.mem_ctrls1.perBankRdBursts::13          549075                       # Per bank write bursts
system.mem_ctrls1.perBankRdBursts::14          555572                       # Per bank write bursts
system.mem_ctrls1.perBankRdBursts::15          545932                       # Per bank write bursts
system.mem_ctrls1.perBankWrBursts::0           225494                       # Per bank write bursts
system.mem_ctrls1.perBankWrBursts::1           225268                       # Per bank write bursts
system.mem_ctrls1.perBankWrBursts::2           226746                       # Per bank write bursts
system.mem_ctrls1.perBankWrBursts::3           221711                       # Per bank write bursts
system.mem_ctrls1.perBankWrBursts::4           223210                       # Per bank write bursts
system.mem_ctrls1.perBankWrBursts::5           228332                       # Per bank write bursts
system.mem_ctrls1.perBankWrBursts::6           237055                       # Per bank write bursts
system.mem_ctrls1.perBankWrBursts::7           230868                       # Per bank write bursts
system.mem_ctrls1.perBankWrBursts::8           240578                       # Per bank write bursts
system.mem_ctrls1.perBankWrBursts::9           226104                       # Per bank write bursts
system.mem_ctrls1.perBankWrBursts::10          227172                       # Per bank write bursts
system.mem_ctrls1.perBankWrBursts::11          226224                       # Per bank write bursts
system.mem_ctrls1.perBankWrBursts::12          220714                       # Per bank write bursts
system.mem_ctrls1.perBankWrBursts::13          227106                       # Per bank write bursts
system.mem_ctrls1.perBankWrBursts::14          230834                       # Per bank write bursts
system.mem_ctrls1.perBankWrBursts::15          227604                       # Per bank write bursts
system.mem_ctrls1.numRdRetry                        0                       # Number of times read queue was full causing retry
system.mem_ctrls1.numWrRetry                        0                       # Number of times write queue was full causing retry
system.mem_ctrls1.totGap                 2766249345636                       # Total gap between requests
system.mem_ctrls1.readPktSize::0                    0                       # Read request sizes (log2)
system.mem_ctrls1.readPktSize::1                    0                       # Read request sizes (log2)
system.mem_ctrls1.readPktSize::2                    0                       # Read request sizes (log2)
system.mem_ctrls1.readPktSize::3                    0                       # Read request sizes (log2)
system.mem_ctrls1.readPktSize::4                    0                       # Read request sizes (log2)
system.mem_ctrls1.readPktSize::5                    0                       # Read request sizes (log2)
system.mem_ctrls1.readPktSize::6              8824942                       # Read request sizes (log2)
system.mem_ctrls1.writePktSize::0                   0                       # Write request sizes (log2)
system.mem_ctrls1.writePktSize::1                   0                       # Write request sizes (log2)
system.mem_ctrls1.writePktSize::2                   0                       # Write request sizes (log2)
system.mem_ctrls1.writePktSize::3                   0                       # Write request sizes (log2)
system.mem_ctrls1.writePktSize::4                   0                       # Write request sizes (log2)
system.mem_ctrls1.writePktSize::5                   0                       # Write request sizes (log2)
system.mem_ctrls1.writePktSize::6             3645035                       # Write request sizes (log2)
system.mem_ctrls1.rdQLenPdf::0                8144448                       # What read queue length does an incoming req see
system.mem_ctrls1.rdQLenPdf::1                 593265                       # What read queue length does an incoming req see
system.mem_ctrls1.rdQLenPdf::2                  78137                       # What read queue length does an incoming req see
system.mem_ctrls1.rdQLenPdf::3                   5120                       # What read queue length does an incoming req see
system.mem_ctrls1.rdQLenPdf::4                      3                       # What read queue length does an incoming req see
system.mem_ctrls1.rdQLenPdf::5                      0                       # What read queue length does an incoming req see
system.mem_ctrls1.rdQLenPdf::6                      0                       # What read queue length does an incoming req see
system.mem_ctrls1.rdQLenPdf::7                      0                       # What read queue length does an incoming req see
system.mem_ctrls1.rdQLenPdf::8                      0                       # What read queue length does an incoming req see
system.mem_ctrls1.rdQLenPdf::9                      0                       # What read queue length does an incoming req see
system.mem_ctrls1.rdQLenPdf::10                     0                       # What read queue length does an incoming req see
system.mem_ctrls1.rdQLenPdf::11                     0                       # What read queue length does an incoming req see
system.mem_ctrls1.rdQLenPdf::12                     0                       # What read queue length does an incoming req see
system.mem_ctrls1.rdQLenPdf::13                     0                       # What read queue length does an incoming req see
system.mem_ctrls1.rdQLenPdf::14                     0                       # What read queue length does an incoming req see
system.mem_ctrls1.rdQLenPdf::15                     0                       # What read queue length does an incoming req see
system.mem_ctrls1.rdQLenPdf::16                     0                       # What read queue length does an incoming req see
system.mem_ctrls1.rdQLenPdf::17                     0                       # What read queue length does an incoming req see
system.mem_ctrls1.rdQLenPdf::18                     0                       # What read queue length does an incoming req see
system.mem_ctrls1.rdQLenPdf::19                     0                       # What read queue length does an incoming req see
system.mem_ctrls1.rdQLenPdf::20                     0                       # What read queue length does an incoming req see
system.mem_ctrls1.rdQLenPdf::21                     0                       # What read queue length does an incoming req see
system.mem_ctrls1.rdQLenPdf::22                     0                       # What read queue length does an incoming req see
system.mem_ctrls1.rdQLenPdf::23                     0                       # What read queue length does an incoming req see
system.mem_ctrls1.rdQLenPdf::24                     0                       # What read queue length does an incoming req see
system.mem_ctrls1.rdQLenPdf::25                     0                       # What read queue length does an incoming req see
system.mem_ctrls1.rdQLenPdf::26                     0                       # What read queue length does an incoming req see
system.mem_ctrls1.rdQLenPdf::27                     0                       # What read queue length does an incoming req see
system.mem_ctrls1.rdQLenPdf::28                     0                       # What read queue length does an incoming req see
system.mem_ctrls1.rdQLenPdf::29                     0                       # What read queue length does an incoming req see
system.mem_ctrls1.rdQLenPdf::30                     0                       # What read queue length does an incoming req see
system.mem_ctrls1.rdQLenPdf::31                     0                       # What read queue length does an incoming req see
system.mem_ctrls1.wrQLenPdf::0                      2                       # What write queue length does an incoming req see
system.mem_ctrls1.wrQLenPdf::1                      2                       # What write queue length does an incoming req see
system.mem_ctrls1.wrQLenPdf::2                      2                       # What write queue length does an incoming req see
system.mem_ctrls1.wrQLenPdf::3                      2                       # What write queue length does an incoming req see
system.mem_ctrls1.wrQLenPdf::4                      2                       # What write queue length does an incoming req see
system.mem_ctrls1.wrQLenPdf::5                      2                       # What write queue length does an incoming req see
system.mem_ctrls1.wrQLenPdf::6                      2                       # What write queue length does an incoming req see
system.mem_ctrls1.wrQLenPdf::7                      2                       # What write queue length does an incoming req see
system.mem_ctrls1.wrQLenPdf::8                      2                       # What write queue length does an incoming req see
system.mem_ctrls1.wrQLenPdf::9                      2                       # What write queue length does an incoming req see
system.mem_ctrls1.wrQLenPdf::10                     2                       # What write queue length does an incoming req see
system.mem_ctrls1.wrQLenPdf::11                     2                       # What write queue length does an incoming req see
system.mem_ctrls1.wrQLenPdf::12                     2                       # What write queue length does an incoming req see
system.mem_ctrls1.wrQLenPdf::13                     2                       # What write queue length does an incoming req see
system.mem_ctrls1.wrQLenPdf::14                     2                       # What write queue length does an incoming req see
system.mem_ctrls1.wrQLenPdf::15                115525                       # What write queue length does an incoming req see
system.mem_ctrls1.wrQLenPdf::16                120054                       # What write queue length does an incoming req see
system.mem_ctrls1.wrQLenPdf::17                205691                       # What write queue length does an incoming req see
system.mem_ctrls1.wrQLenPdf::18                213154                       # What write queue length does an incoming req see
system.mem_ctrls1.wrQLenPdf::19                213438                       # What write queue length does an incoming req see
system.mem_ctrls1.wrQLenPdf::20                213334                       # What write queue length does an incoming req see
system.mem_ctrls1.wrQLenPdf::21                213213                       # What write queue length does an incoming req see
system.mem_ctrls1.wrQLenPdf::22                213162                       # What write queue length does an incoming req see
system.mem_ctrls1.wrQLenPdf::23                213116                       # What write queue length does an incoming req see
system.mem_ctrls1.wrQLenPdf::24                213025                       # What write queue length does an incoming req see
system.mem_ctrls1.wrQLenPdf::25                213034                       # What write queue length does an incoming req see
system.mem_ctrls1.wrQLenPdf::26                213033                       # What write queue length does an incoming req see
system.mem_ctrls1.wrQLenPdf::27                213416                       # What write queue length does an incoming req see
system.mem_ctrls1.wrQLenPdf::28                213572                       # What write queue length does an incoming req see
system.mem_ctrls1.wrQLenPdf::29                216430                       # What write queue length does an incoming req see
system.mem_ctrls1.wrQLenPdf::30                216576                       # What write queue length does an incoming req see
system.mem_ctrls1.wrQLenPdf::31                212611                       # What write queue length does an incoming req see
system.mem_ctrls1.wrQLenPdf::32                212517                       # What write queue length does an incoming req see
system.mem_ctrls1.wrQLenPdf::33                    97                       # What write queue length does an incoming req see
system.mem_ctrls1.wrQLenPdf::34                     7                       # What write queue length does an incoming req see
system.mem_ctrls1.wrQLenPdf::35                     0                       # What write queue length does an incoming req see
system.mem_ctrls1.wrQLenPdf::36                     0                       # What write queue length does an incoming req see
system.mem_ctrls1.wrQLenPdf::37                     0                       # What write queue length does an incoming req see
system.mem_ctrls1.wrQLenPdf::38                     0                       # What write queue length does an incoming req see
system.mem_ctrls1.wrQLenPdf::39                     0                       # What write queue length does an incoming req see
system.mem_ctrls1.wrQLenPdf::40                     0                       # What write queue length does an incoming req see
system.mem_ctrls1.wrQLenPdf::41                     0                       # What write queue length does an incoming req see
system.mem_ctrls1.wrQLenPdf::42                     0                       # What write queue length does an incoming req see
system.mem_ctrls1.wrQLenPdf::43                     0                       # What write queue length does an incoming req see
system.mem_ctrls1.wrQLenPdf::44                     0                       # What write queue length does an incoming req see
system.mem_ctrls1.wrQLenPdf::45                     0                       # What write queue length does an incoming req see
system.mem_ctrls1.wrQLenPdf::46                     0                       # What write queue length does an incoming req see
system.mem_ctrls1.wrQLenPdf::47                     0                       # What write queue length does an incoming req see
system.mem_ctrls1.wrQLenPdf::48                     0                       # What write queue length does an incoming req see
system.mem_ctrls1.wrQLenPdf::49                     0                       # What write queue length does an incoming req see
system.mem_ctrls1.wrQLenPdf::50                     0                       # What write queue length does an incoming req see
system.mem_ctrls1.wrQLenPdf::51                     0                       # What write queue length does an incoming req see
system.mem_ctrls1.wrQLenPdf::52                     0                       # What write queue length does an incoming req see
system.mem_ctrls1.wrQLenPdf::53                     0                       # What write queue length does an incoming req see
system.mem_ctrls1.wrQLenPdf::54                     0                       # What write queue length does an incoming req see
system.mem_ctrls1.wrQLenPdf::55                     0                       # What write queue length does an incoming req see
system.mem_ctrls1.wrQLenPdf::56                     0                       # What write queue length does an incoming req see
system.mem_ctrls1.wrQLenPdf::57                     0                       # What write queue length does an incoming req see
system.mem_ctrls1.wrQLenPdf::58                     0                       # What write queue length does an incoming req see
system.mem_ctrls1.wrQLenPdf::59                     0                       # What write queue length does an incoming req see
system.mem_ctrls1.wrQLenPdf::60                     0                       # What write queue length does an incoming req see
system.mem_ctrls1.wrQLenPdf::61                     0                       # What write queue length does an incoming req see
system.mem_ctrls1.wrQLenPdf::62                     0                       # What write queue length does an incoming req see
system.mem_ctrls1.wrQLenPdf::63                     0                       # What write queue length does an incoming req see
system.mem_ctrls1.bytesPerActivate::samples      7683252                       # Bytes accessed per row activation
system.mem_ctrls1.bytesPerActivate::mean   103.839231                       # Bytes accessed per row activation
system.mem_ctrls1.bytesPerActivate::gmean    84.379747                       # Bytes accessed per row activation
system.mem_ctrls1.bytesPerActivate::stdev   100.059999                       # Bytes accessed per row activation
system.mem_ctrls1.bytesPerActivate::0-127      5766301     75.05%     75.05% # Bytes accessed per row activation
system.mem_ctrls1.bytesPerActivate::128-255      1307135     17.01%     92.06% # Bytes accessed per row activation
system.mem_ctrls1.bytesPerActivate::256-383       335765      4.37%     96.43% # Bytes accessed per row activation
system.mem_ctrls1.bytesPerActivate::384-511       142129      1.85%     98.28% # Bytes accessed per row activation
system.mem_ctrls1.bytesPerActivate::512-639        73818      0.96%     99.24% # Bytes accessed per row activation
system.mem_ctrls1.bytesPerActivate::640-767        32282      0.42%     99.66% # Bytes accessed per row activation
system.mem_ctrls1.bytesPerActivate::768-895        12691      0.17%     99.83% # Bytes accessed per row activation
system.mem_ctrls1.bytesPerActivate::896-1023         7021      0.09%     99.92% # Bytes accessed per row activation
system.mem_ctrls1.bytesPerActivate::1024-1151         6110      0.08%    100.00% # Bytes accessed per row activation
system.mem_ctrls1.bytesPerActivate::total      7683252                       # Bytes accessed per row activation
system.mem_ctrls1.rdPerTurnAround::samples       212483                       # Reads before turning the bus around for writes
system.mem_ctrls1.rdPerTurnAround::mean     41.513768                       # Reads before turning the bus around for writes
system.mem_ctrls1.rdPerTurnAround::gmean    39.846746                       # Reads before turning the bus around for writes
system.mem_ctrls1.rdPerTurnAround::stdev    54.432760                       # Reads before turning the bus around for writes
system.mem_ctrls1.rdPerTurnAround::0-1023       212482    100.00%    100.00% # Reads before turning the bus around for writes
system.mem_ctrls1.rdPerTurnAround::23552-24575            1      0.00%    100.00% # Reads before turning the bus around for writes
system.mem_ctrls1.rdPerTurnAround::total       212483                       # Reads before turning the bus around for writes
system.mem_ctrls1.wrPerTurnAround::samples       212483                       # Writes before turning the bus around for reads
system.mem_ctrls1.wrPerTurnAround::mean     17.154408                       # Writes before turning the bus around for reads
system.mem_ctrls1.wrPerTurnAround::gmean    17.121589                       # Writes before turning the bus around for reads
system.mem_ctrls1.wrPerTurnAround::stdev     1.059952                       # Writes before turning the bus around for reads
system.mem_ctrls1.wrPerTurnAround::16           93877     44.18%     44.18% # Writes before turning the bus around for reads
system.mem_ctrls1.wrPerTurnAround::17            2627      1.24%     45.42% # Writes before turning the bus around for reads
system.mem_ctrls1.wrPerTurnAround::18          106093     49.93%     95.35% # Writes before turning the bus around for reads
system.mem_ctrls1.wrPerTurnAround::19            9140      4.30%     99.65% # Writes before turning the bus around for reads
system.mem_ctrls1.wrPerTurnAround::20             680      0.32%     99.97% # Writes before turning the bus around for reads
system.mem_ctrls1.wrPerTurnAround::21              58      0.03%    100.00% # Writes before turning the bus around for reads
system.mem_ctrls1.wrPerTurnAround::22               7      0.00%    100.00% # Writes before turning the bus around for reads
system.mem_ctrls1.wrPerTurnAround::23               1      0.00%    100.00% # Writes before turning the bus around for reads
system.mem_ctrls1.wrPerTurnAround::total       212483                       # Writes before turning the bus around for reads
system.mem_ctrls1.totQLat                188008955672                       # Total ticks spent queuing
system.mem_ctrls1.totMemAccLat           353402199422                       # Total ticks spent from burst creation until serviced by the DRAM
system.mem_ctrls1.totBusLat               44104865000                       # Total ticks spent in databus transfers
system.mem_ctrls1.avgQLat                    21313.86                       # Average queueing delay per DRAM burst
system.mem_ctrls1.avgBusLat                   5000.00                       # Average bus latency per DRAM burst
system.mem_ctrls1.avgMemAccLat               40063.86                       # Average memory access latency per DRAM burst
system.mem_ctrls1.avgRdBW                      204.08                       # Average DRAM read bandwidth in MiByte/s
system.mem_ctrls1.avgWrBW                       84.33                       # Average achieved write bandwidth in MiByte/s
system.mem_ctrls1.avgRdBWSys                   204.17                       # Average system read bandwidth in MiByte/s
system.mem_ctrls1.avgWrBWSys                    84.33                       # Average system write bandwidth in MiByte/s
system.mem_ctrls1.peakBW                     12800.00                       # Theoretical peak bandwidth in MiByte/s
system.mem_ctrls1.busUtil                        2.25                       # Data bus utilization in percentage
system.mem_ctrls1.busUtilRead                    1.59                       # Data bus utilization in percentage for reads
system.mem_ctrls1.busUtilWrite                   0.66                       # Data bus utilization in percentage for writes
system.mem_ctrls1.avgRdQLen                      1.05                       # Average read queue length when enqueuing
system.mem_ctrls1.avgWrQLen                     24.84                       # Average write queue length when enqueuing
system.mem_ctrls1.readRowHits                 4714859                       # Number of row buffer hits during reads
system.mem_ctrls1.writeRowHits                  67875                       # Number of row buffer hits during writes
system.mem_ctrls1.readRowHitRate                53.45                       # Row buffer hit rate for reads
system.mem_ctrls1.writeRowHitRate                1.86                       # Row buffer hit rate for writes
system.mem_ctrls1.avgGap                    221832.75                       # Average gap between requests
system.mem_ctrls1.pageHitRate                   38.37                       # Row buffer hit rate, read and write combined
system.mem_ctrls1_0.actEnergy             27416743200                       # Energy for activate commands per rank (pJ)
system.mem_ctrls1_0.preEnergy             14572337010                       # Energy for precharge commands per rank (pJ)
system.mem_ctrls1_0.readEnergy            31546776240                       # Energy for read commands per rank (pJ)
system.mem_ctrls1_0.writeEnergy            9493530480                       # Energy for write commands per rank (pJ)
system.mem_ctrls1_0.refreshEnergy        219296790960.000061                       # Energy for refresh commands per rank (pJ)
system.mem_ctrls1_0.actBackEnergy        181037989560                       # Energy for active background per rank (pJ)
system.mem_ctrls1_0.preBackEnergy          5287179840                       # Energy for precharge background per rank (pJ)
system.mem_ctrls1_0.actPowerDownEnergy   928945288320                       # Energy for active power-down per rank (pJ)
system.mem_ctrls1_0.prePowerDownEnergy   111565030560                       # Energy for precharge power-down per rank (pJ)
system.mem_ctrls1_0.selfRefreshEnergy      9685912770                       # Energy for self refresh per rank (pJ)
system.mem_ctrls1_0.totalEnergy          1538870909790                       # Total energy per rank (pJ)
system.mem_ctrls1_0.averagePower           556.302262                       # Core power per rank (mW)
system.mem_ctrls1_0.totalIdleTime        2355415015224                       # Total Idle time Per DRAM Rank
system.mem_ctrls1_0.memoryStateTime::IDLE   3457632525                       # Time in different power states
system.mem_ctrls1_0.memoryStateTime::REF  92800144000                       # Time in different power states
system.mem_ctrls1_0.memoryStateTime::SREF  27721238643                       # Time in different power states
system.mem_ctrls1_0.memoryStateTime::PRE_PDN 290535650685                       # Time in different power states
system.mem_ctrls1_0.memoryStateTime::ACT 314576687528                       # Time in different power states
system.mem_ctrls1_0.memoryStateTime::ACT_PDN 2037158237010                       # Time in different power states
system.mem_ctrls1_1.actEnergy             27441726060                       # Energy for activate commands per rank (pJ)
system.mem_ctrls1_1.preEnergy             14585604330                       # Energy for precharge commands per rank (pJ)
system.mem_ctrls1_1.readEnergy            31434970980                       # Energy for read commands per rank (pJ)
system.mem_ctrls1_1.writeEnergy            9533473920                       # Energy for write commands per rank (pJ)
system.mem_ctrls1_1.refreshEnergy        219390216240.000061                       # Energy for refresh commands per rank (pJ)
system.mem_ctrls1_1.actBackEnergy        181414758420                       # Energy for active background per rank (pJ)
system.mem_ctrls1_1.preBackEnergy          5302770240                       # Energy for precharge background per rank (pJ)
system.mem_ctrls1_1.actPowerDownEnergy   926134135530                       # Energy for active power-down per rank (pJ)
system.mem_ctrls1_1.prePowerDownEnergy   113270677440                       # Energy for precharge power-down per rank (pJ)
system.mem_ctrls1_1.selfRefreshEnergy     10047450360                       # Energy for self refresh per rank (pJ)
system.mem_ctrls1_1.totalEnergy          1538581421310                       # Total energy per rank (pJ)
system.mem_ctrls1_1.averagePower           556.197611                       # Core power per rank (mW)
system.mem_ctrls1_1.totalIdleTime        2354547493759                       # Total Idle time Per DRAM Rank
system.mem_ctrls1_1.memoryStateTime::IDLE   3534878538                       # Time in different power states
system.mem_ctrls1_1.memoryStateTime::REF  92841788000                       # Time in different power states
system.mem_ctrls1_1.memoryStateTime::SREF  28572226692                       # Time in different power states
system.mem_ctrls1_1.memoryStateTime::PRE_PDN 294975430635                       # Time in different power states
system.mem_ctrls1_1.memoryStateTime::ACT 315325430094                       # Time in different power states
system.mem_ctrls1_1.memoryStateTime::ACT_PDN 2030999836432                       # Time in different power states
system.pwrStateResidencyTicks::UNDEFINED 129719246115123                       # Cumulative time (in ticks) in various power states
system.cpu.branchPred.lookups                       3                       # Number of BP lookups
system.cpu.branchPred.condPredicted                 3                       # Number of conditional branches predicted
system.cpu.branchPred.condIncorrect                 1                       # Number of conditional branches incorrect
system.cpu.branchPred.BTBLookups                    0                       # Number of BTB lookups
system.cpu.branchPred.BTBHits                       0                       # Number of BTB hits
system.cpu.branchPred.BTBCorrect                    0                       # Number of correct BTB predictions (this stat may not work properly.
system.cpu.branchPred.BTBHitPct                   nan                       # BTB Hit Percentage
system.cpu.branchPred.usedRAS                       0                       # Number of times the RAS was used to get a target.
system.cpu.branchPred.RASInCorrect                  0                       # Number of incorrect RAS predictions.
system.cpu.branchPred.indirectLookups               0                       # Number of indirect predictor lookups.
system.cpu.branchPred.indirectHits                  0                       # Number of indirect target hits.
system.cpu.branchPred.indirectMisses                0                       # Number of indirect misses.
system.cpu.branchPredindirectMispredicted            0                       # Number of mispredicted indirect branches.
system.cpu_voltage_domain.voltage                   1                       # Voltage in Volts
system.cpu_clk_domain.clock                       333                       # Clock period in ticks
system.cpu.dtb.fetch_hits                           0                       # ITB hits
system.cpu.dtb.fetch_misses                         0                       # ITB misses
system.cpu.dtb.fetch_acv                            0                       # ITB acv
system.cpu.dtb.fetch_accesses                       0                       # ITB accesses
system.cpu.dtb.read_hits                            2                       # DTB read hits
system.cpu.dtb.read_misses                          0                       # DTB read misses
system.cpu.dtb.read_acv                             0                       # DTB read access violations
system.cpu.dtb.read_accesses                        2                       # DTB read accesses
system.cpu.dtb.write_hits                           0                       # DTB write hits
system.cpu.dtb.write_misses                         0                       # DTB write misses
system.cpu.dtb.write_acv                            0                       # DTB write access violations
system.cpu.dtb.write_accesses                       0                       # DTB write accesses
system.cpu.dtb.data_hits                            2                       # DTB hits
system.cpu.dtb.data_misses                          0                       # DTB misses
system.cpu.dtb.data_acv                             0                       # DTB access violations
system.cpu.dtb.data_accesses                        2                       # DTB accesses
system.cpu.itb.fetch_hits                           3                       # ITB hits
system.cpu.itb.fetch_misses                         0                       # ITB misses
system.cpu.itb.fetch_acv                            0                       # ITB acv
system.cpu.itb.fetch_accesses                       3                       # ITB accesses
system.cpu.itb.read_hits                            0                       # DTB read hits
system.cpu.itb.read_misses                          0                       # DTB read misses
system.cpu.itb.read_acv                             0                       # DTB read access violations
system.cpu.itb.read_accesses                        0                       # DTB read accesses
system.cpu.itb.write_hits                           0                       # DTB write hits
system.cpu.itb.write_misses                         0                       # DTB write misses
system.cpu.itb.write_acv                            0                       # DTB write access violations
system.cpu.itb.write_accesses                       0                       # DTB write accesses
system.cpu.itb.data_hits                            0                       # DTB hits
system.cpu.itb.data_misses                          0                       # DTB misses
system.cpu.itb.data_acv                             0                       # DTB access violations
system.cpu.itb.data_accesses                        0                       # DTB accesses
system.cpu.workload.num_syscalls                    2                       # Number of system calls
system.cpu.pwrStateResidencyTicks::ON    2766249590391                       # Cumulative time (in ticks) in various power states
system.cpu.numCycles                              291                       # number of cpu cycles simulated
system.cpu.numWorkItemsStarted                      0                       # number of work items this cpu started
system.cpu.numWorkItemsCompleted                    0                       # number of work items this cpu completed
system.cpu.fetch.icacheStallCycles                 19                       # Number of cycles fetch is stalled on an Icache miss
system.cpu.fetch.Insts                              9                       # Number of instructions fetch has processed
system.cpu.fetch.Branches                           3                       # Number of branches that fetch encountered
system.cpu.fetch.Cycles                             2                       # Number of cycles fetch has run and was not squashing or blocked
system.cpu.fetch.SquashCycles                       5                       # Number of cycles fetch has spent squashing
system.cpu.fetch.PendingDrainCycles                 3                       # Number of cycles fetch has spent waiting on pipes to drain
system.cpu.fetch.CacheLines                         3                       # Number of cache lines fetched
system.cpu.fetch.IcacheSquashes                     2                       # Number of outstanding Icache misses that were squashed
system.cpu.fetch.rateDist::samples                 26                       # Number of instructions fetched each cycle (Total)
system.cpu.fetch.rateDist::mean              0.346154                       # Number of instructions fetched each cycle (Total)
system.cpu.fetch.rateDist::stdev             1.573336                       # Number of instructions fetched each cycle (Total)
system.cpu.fetch.rateDist::underflows               0      0.00%      0.00% # Number of instructions fetched each cycle (Total)
system.cpu.fetch.rateDist::0                       24     92.31%     92.31% # Number of instructions fetched each cycle (Total)
system.cpu.fetch.rateDist::1                        1      3.85%     96.15% # Number of instructions fetched each cycle (Total)
system.cpu.fetch.rateDist::2                        0      0.00%     96.15% # Number of instructions fetched each cycle (Total)
system.cpu.fetch.rateDist::3                        0      0.00%     96.15% # Number of instructions fetched each cycle (Total)
system.cpu.fetch.rateDist::4                        0      0.00%     96.15% # Number of instructions fetched each cycle (Total)
system.cpu.fetch.rateDist::5                        0      0.00%     96.15% # Number of instructions fetched each cycle (Total)
system.cpu.fetch.rateDist::6                        0      0.00%     96.15% # Number of instructions fetched each cycle (Total)
system.cpu.fetch.rateDist::7                        0      0.00%     96.15% # Number of instructions fetched each cycle (Total)
system.cpu.fetch.rateDist::8                        1      3.85%    100.00% # Number of instructions fetched each cycle (Total)
system.cpu.fetch.rateDist::overflows                0      0.00%    100.00% # Number of instructions fetched each cycle (Total)
system.cpu.fetch.rateDist::min_value                0                       # Number of instructions fetched each cycle (Total)
system.cpu.fetch.rateDist::max_value                8                       # Number of instructions fetched each cycle (Total)
system.cpu.fetch.rateDist::total                   26                       # Number of instructions fetched each cycle (Total)
[...]
system.switch_cpus_1.iq.int_inst_queue_wakeup_accesses    806912196                       # Number of integer instruction queue wakeup accesses
system.switch_cpus_1.iq.fp_inst_queue_reads    175710301                       # Number of floating instruction queue reads
system.switch_cpus_1.iq.fp_inst_queue_writes    287532293                       # Number of floating instruction queue writes
system.switch_cpus_1.iq.fp_inst_queue_wakeup_accesses     72079978                       # Number of floating instruction queue wakeup accesses
system.switch_cpus_1.iq.int_alu_accesses    884671533                       # Number of integer alu accesses
system.switch_cpus_1.iq.fp_alu_accesses      88307768                       # Number of floating point alu accesses
system.switch_cpus_1.iew.lsq.thread0.forwLoads     23532492                       # Number of loads that had data forwarded from stores
system.switch_cpus_1.iew.lsq.thread0.invAddrLoads            0                       # Number of loads ignored due to an invalid address
system.switch_cpus_1.iew.lsq.thread0.squashedLoads    173988107                       # Number of loads squashed
system.switch_cpus_1.iew.lsq.thread0.ignoredResponses        57468                       # Number of memory responses ignored because the instruction is squashed
system.switch_cpus_1.iew.lsq.thread0.memOrderViolation        27726                       # Number of memory ordering violations
system.switch_cpus_1.iew.lsq.thread0.squashedStores     74994264                       # Number of stores squashed
system.switch_cpus_1.iew.lsq.thread0.invAddrSwpfs            0                       # Number of software prefetches ignored due to an invalid address
system.switch_cpus_1.iew.lsq.thread0.blockedLoads            0                       # Number of blocked loads due to partial load-store forwarding
system.switch_cpus_1.iew.lsq.thread0.rescheduledLoads         1159                       # Number of loads that were rescheduled
system.switch_cpus_1.iew.lsq.thread0.cacheBlocked      6217913                       # Number of times an access to memory failed due to the cache being blocked
system.switch_cpus_1.iew.iewIdleCycles              0                       # Number of cycles IEW is idle
system.switch_cpus_1.iew.iewSquashCycles      9658643                       # Number of cycles IEW is squashing
system.switch_cpus_1.iew.iewBlockCycles     375346418                       # Number of cycles IEW is blocking
system.switch_cpus_1.iew.iewUnblockCycles    200325936                       # Number of cycles IEW is unblocking
system.switch_cpus_1.iew.iewDispatchedInsts   1231300595                       # Number of instructions dispatched to IQ
system.switch_cpus_1.iew.iewDispSquashedInsts       325880                       # Number of squashed instructions skipped by dispatch
system.switch_cpus_1.iew.iewDispLoadInsts    293321012                       # Number of dispatched load instructions
system.switch_cpus_1.iew.iewDispStoreInsts    148041515                       # Number of dispatched store instructions
system.switch_cpus_1.iew.iewDispNonSpecInsts      1320875                       # Number of dispatched non-speculative instructions
system.switch_cpus_1.iew.iewIQFullEvents      3152716                       # Number of times the IQ has become full, causing a stall
system.switch_cpus_1.iew.iewLSQFullEvents    196566103                       # Number of times the LSQ has become full, causing a stall
system.switch_cpus_1.iew.memOrderViolationEvents        27726                       # Number of memory order violations
system.switch_cpus_1.iew.predictedTakenIncorrect      1924963                       # Number of branches that were predicted taken incorrectly
system.switch_cpus_1.iew.predictedNotTakenIncorrect      2864975                       # Number of branches that were predicted not taken incorrectly
system.switch_cpus_1.iew.branchMispredicts      4789938                       # Number of branch mispredicts detected at execute
system.switch_cpus_1.iew.iewExecutedInsts    944982456                       # Number of executed instructions
system.switch_cpus_1.iew.iewExecLoadInsts    258382487                       # Number of load instructions executed
system.switch_cpus_1.iew.iewExecSquashedInsts     10631360                       # Number of squashed instructions skipped in execute
system.switch_cpus_1.iew.exec_swp                   0                       # number of swp insts executed
system.switch_cpus_1.iew.exec_nop            58157832                       # number of nop insts executed
system.switch_cpus_1.iew.exec_refs          389779279                       # number of memory reference insts executed
system.switch_cpus_1.iew.exec_branches      182312150                       # Number of branches executed
system.switch_cpus_1.iew.exec_stores        131396792                       # Number of stores executed
system.switch_cpus_1.iew.exec_rate           0.568389                       # Inst execution rate
system.switch_cpus_1.iew.wb_sent            931935012                       # cumulative count of insts sent to commit
system.switch_cpus_1.iew.wb_count           878992174                       # cumulative count of insts written-back
system.switch_cpus_1.iew.wb_producers       445871995                       # num instructions producing a value
system.switch_cpus_1.iew.wb_consumers       654105573                       # num instructions consuming a value
system.switch_cpus_1.iew.wb_rate             0.528697                       # insts written-back per cycle
system.switch_cpus_1.iew.wb_fanout           0.681651                       # average fanout of values written-back
system.switch_cpus_1.commit.commitSquashedInsts    587511395                       # The number of squashed insts skipped by commit
system.switch_cpus_1.commit.commitNonSpecStalls      1667910                       # The number of times commit has been forced to stall to communicate backwards
system.switch_cpus_1.commit.branchMispredicts      3689892                       # The number of times a branch was mispredicted
system.switch_cpus_1.commit.committed_per_cycle::samples   1576593699                       # Number of insts commited each cycle
system.switch_cpus_1.commit.committed_per_cycle::mean     0.338696                       # Number of insts commited each cycle
system.switch_cpus_1.commit.committed_per_cycle::stdev     1.404202                       # Number of insts commited each cycle
system.switch_cpus_1.commit.committed_per_cycle::underflows            0      0.00%      0.00% # Number of insts commited each cycle
system.switch_cpus_1.commit.committed_per_cycle::0   1440763063     91.38%     91.38% # Number of insts commited each cycle
system.switch_cpus_1.commit.committed_per_cycle::1     49997620      3.17%     94.56% # Number of insts commited each cycle
system.switch_cpus_1.commit.committed_per_cycle::2     15087982      0.96%     95.51% # Number of insts commited each cycle
system.switch_cpus_1.commit.committed_per_cycle::3      9326299      0.59%     96.10% # Number of insts commited each cycle
system.switch_cpus_1.commit.committed_per_cycle::4      8289266      0.53%     96.63% # Number of insts commited each cycle
system.switch_cpus_1.commit.committed_per_cycle::5      6372922      0.40%     97.03% # Number of insts commited each cycle
system.switch_cpus_1.commit.committed_per_cycle::6      4755263      0.30%     97.34% # Number of insts commited each cycle
system.switch_cpus_1.commit.committed_per_cycle::7      3730003      0.24%     97.57% # Number of insts commited each cycle
system.switch_cpus_1.commit.committed_per_cycle::8     38271281      2.43%    100.00% # Number of insts commited each cycle
system.switch_cpus_1.commit.committed_per_cycle::overflows            0      0.00%    100.00% # Number of insts commited each cycle
system.switch_cpus_1.commit.committed_per_cycle::min_value            0                       # Number of insts commited each cycle
system.switch_cpus_1.commit.committed_per_cycle::max_value            8                       # Number of insts commited each cycle
system.switch_cpus_1.commit.committed_per_cycle::total   1576593699                       # Number of insts commited each cycle
system.switch_cpus_1.commit.committedInsts    533986002                       # Number of instructions committed
system.switch_cpus_1.commit.committedOps    533986002                       # Number of ops (including micro ops) committed
system.switch_cpus_1.commit.swp_count               0                       # Number of s/w prefetches committed
system.switch_cpus_1.commit.refs            192380151                       # Number of memory references committed
system.switch_cpus_1.commit.loads           119332903                       # Number of loads committed
system.switch_cpus_1.commit.membars            833954                       # Number of memory barriers committed
system.switch_cpus_1.commit.branches        107213906                       # Number of branches committed
system.switch_cpus_1.commit.fp_insts         48147358                       # Number of committed floating point instructions.
system.switch_cpus_1.commit.int_insts       462975860                       # Number of committed integer instructions.
system.switch_cpus_1.commit.function_calls     15694807                       # Number of function calls committed.
system.switch_cpus_1.commit.op_class_0::No_OpClass     34421006      6.45%      6.45% # Class of committed instruction
system.switch_cpus_1.commit.op_class_0::IntAlu    277415853     51.95%     58.40% # Class of committed instruction
system.switch_cpus_1.commit.op_class_0::IntMult       217703      0.04%     58.44% # Class of committed instruction
system.switch_cpus_1.commit.op_class_0::IntDiv            0      0.00%     58.44% # Class of committed instruction
system.switch_cpus_1.commit.op_class_0::FloatAdd     15713450      2.94%     61.38% # Class of committed instruction
system.switch_cpus_1.commit.op_class_0::FloatCmp     11767421      2.20%     63.59% # Class of committed instruction
system.switch_cpus_1.commit.op_class_0::FloatCvt       884671      0.17%     63.75% # Class of committed instruction
system.switch_cpus_1.commit.op_class_0::FloatMult       134182      0.03%     63.78% # Class of committed instruction
system.switch_cpus_1.commit.op_class_0::FloatMultAcc            0      0.00%     63.78% # Class of committed instruction
system.switch_cpus_1.commit.op_class_0::FloatDiv       217583      0.04%     63.82% # Class of committed instruction
system.switch_cpus_1.commit.op_class_0::FloatMisc            0      0.00%     63.82% # Class of committed instruction
system.switch_cpus_1.commit.op_class_0::FloatSqrt           28      0.00%     63.82% # Class of committed instruction
system.switch_cpus_1.commit.op_class_0::SimdAdd            0      0.00%     63.82% # Class of committed instruction
system.switch_cpus_1.commit.op_class_0::SimdAddAcc            0      0.00%     63.82% # Class of committed instruction
system.switch_cpus_1.commit.op_class_0::SimdAlu            0      0.00%     63.82% # Class of committed instruction
system.switch_cpus_1.commit.op_class_0::SimdCmp            0      0.00%     63.82% # Class of committed instruction
system.switch_cpus_1.commit.op_class_0::SimdCvt            0      0.00%     63.82% # Class of committed instruction
system.switch_cpus_1.commit.op_class_0::SimdMisc            0      0.00%     63.82% # Class of committed instruction
system.switch_cpus_1.commit.op_class_0::SimdMult            0      0.00%     63.82% # Class of committed instruction
system.switch_cpus_1.commit.op_class_0::SimdMultAcc            0      0.00%     63.82% # Class of committed instruction
system.switch_cpus_1.commit.op_class_0::SimdShift            0      0.00%     63.82% # Class of committed instruction
system.switch_cpus_1.commit.op_class_0::SimdShiftAcc            0      0.00%     63.82% # Class of committed instruction
system.switch_cpus_1.commit.op_class_0::SimdSqrt            0      0.00%     63.82% # Class of committed instruction
system.switch_cpus_1.commit.op_class_0::SimdFloatAdd            0      0.00%     63.82% # Class of committed instruction
system.switch_cpus_1.commit.op_class_0::SimdFloatAlu            0      0.00%     63.82% # Class of committed instruction
system.switch_cpus_1.commit.op_class_0::SimdFloatCmp            0      0.00%     63.82% # Class of committed instruction
system.switch_cpus_1.commit.op_class_0::SimdFloatCvt            0      0.00%     63.82% # Class of committed instruction
system.switch_cpus_1.commit.op_class_0::SimdFloatDiv            0      0.00%     63.82% # Class of committed instruction
system.switch_cpus_1.commit.op_class_0::SimdFloatMisc            0      0.00%     63.82% # Class of committed instruction
system.switch_cpus_1.commit.op_class_0::SimdFloatMult            0      0.00%     63.82% # Class of committed instruction
system.switch_cpus_1.commit.op_class_0::SimdFloatMultAcc            0      0.00%     63.82% # Class of committed instruction
system.switch_cpus_1.commit.op_class_0::SimdFloatSqrt            0      0.00%     63.82% # Class of committed instruction
system.switch_cpus_1.commit.op_class_0::MemRead    105009503     19.67%     83.48% # Class of committed instruction
system.switch_cpus_1.commit.op_class_0::MemWrite     68774579     12.88%     96.36% # Class of committed instruction
system.switch_cpus_1.commit.op_class_0::FloatMemRead     15157354      2.84%     99.20% # Class of committed instruction
system.switch_cpus_1.commit.op_class_0::FloatMemWrite      4272669      0.80%    100.00% # Class of committed instruction
system.switch_cpus_1.commit.op_class_0::IprAccess            0      0.00%    100.00% # Class of committed instruction
system.switch_cpus_1.commit.op_class_0::InstPrefetch            0      0.00%    100.00% # Class of committed instruction
system.switch_cpus_1.commit.op_class_0::total    533986002                       # Class of committed instruction
system.switch_cpus_1.commit.bw_lim_events     38271281                       # number cycles where commit BW limit reached
system.switch_cpus_1.rob.rob_reads         2582510479                       # The number of ROB reads
system.switch_cpus_1.rob.rob_writes        2324167669                       # The number of ROB writes
system.switch_cpus_1.timesIdled                 58078                       # Number of times that the entire CPU went into an idle state and unscheduled itself
system.switch_cpus_1.idleCycles               4917351                       # Total number of cycles that the CPU has spent unscheduled due to idling
system.switch_cpus_1.committedInsts         500000006                       # Number of Instructions Simulated
system.switch_cpus_1.committedOps           500000006                       # Number of Ops (including micro ops) Simulated
system.switch_cpus_1.cpi                     3.325128                       # CPI: Cycles Per Instruction
system.switch_cpus_1.cpi_total               3.325128                       # CPI: Total CPI of All Threads
system.switch_cpus_1.ipc                     0.300740                       # IPC: Instructions Per Cycle
system.switch_cpus_1.ipc_total               0.300740                       # IPC: Total IPC of All Threads
system.switch_cpus_1.int_regfile_reads     1199423348                       # number of integer regfile reads
system.switch_cpus_1.int_regfile_writes     551638190                       # number of integer regfile writes
system.switch_cpus_1.fp_regfile_reads        65836437                       # number of floating regfile reads
system.switch_cpus_1.fp_regfile_writes       49662871                       # number of floating regfile writes
system.switch_cpus_1.misc_regfile_reads       2316102                       # number of misc regfile reads
system.switch_cpus_1.misc_regfile_writes      1885412                       # number of misc regfile writes
system.tol3bus.snoop_filter.tot_requests     56828945                       # Total number of requests made to the snoop filter.
system.tol3bus.snoop_filter.hit_single_requests     28415789                       # Number of requests hitting in the snoop filter with a single holder of the requested data.
system.tol3bus.snoop_filter.hit_multi_requests            0                       # Number of requests hitting in the snoop filter with multiple (>1) holders of the requested data.
system.tol3bus.snoop_filter.tot_snoops          24603                       # Total number of snoops made to the snoop filter.
system.tol3bus.snoop_filter.hit_single_snoops        24603                       # Number of snoops hitting in the snoop filter with a single holder of the requested data.
system.tol3bus.snoop_filter.hit_multi_snoops            0                       # Number of snoops hitting in the snoop filter with multiple (>1) holders of the requested data.
system.tol3bus.pwrStateResidencyTicks::UNDEFINED 129719246115123                       # Cumulative time (in ticks) in various power states
system.tol3bus.trans_dist::ReadResp          24299585                       # Transaction distribution
system.tol3bus.trans_dist::WritebackDirty     21459828                       # Transaction distribution
system.tol3bus.trans_dist::CleanEvict        24521972                       # Transaction distribution
system.tol3bus.trans_dist::UpgradeReq            2492                       # Transaction distribution
system.tol3bus.trans_dist::UpgradeResp           2492                       # Transaction distribution
system.tol3bus.trans_dist::ReadExReq          4113571                       # Transaction distribution
system.tol3bus.trans_dist::ReadExResp         4113571                       # Transaction distribution
system.tol3bus.trans_dist::ReadSharedReq     24299585                       # Transaction distribution
system.tol3bus.pkt_count_system.cpu.l2.mem_side::system.l3.cpu_side     85244593                       # Packet count per connected master and slave (bytes)
system.tol3bus.pkt_size_system.cpu.l2.mem_side::system.l3.cpu_side   2724943040                       # Cumulative packet size per connected master and slave (bytes)
system.tol3bus.snoops                        17568503                       # Total snoops (count)
system.tol3bus.snoopTraffic                 466927936                       # Total snoop traffic (bytes)
system.tol3bus.snoop_fanout::samples         45984151                       # Request fanout histogram
system.tol3bus.snoop_fanout::mean            0.000535                       # Request fanout histogram
system.tol3bus.snoop_fanout::stdev           0.023125                       # Request fanout histogram
system.tol3bus.snoop_fanout::underflows             0      0.00%      0.00% # Request fanout histogram
system.tol3bus.snoop_fanout::0               45959548     99.95%     99.95% # Request fanout histogram
system.tol3bus.snoop_fanout::1                  24603      0.05%    100.00% # Request fanout histogram
system.tol3bus.snoop_fanout::overflows              0      0.00%    100.00% # Request fanout histogram
system.tol3bus.snoop_fanout::min_value              0                       # Request fanout histogram
system.tol3bus.snoop_fanout::max_value              1                       # Request fanout histogram
system.tol3bus.snoop_fanout::total           45984151                       # Request fanout histogram
system.tol3bus.reqLayer0.occupancy        23640676992                       # Layer occupancy (ticks)
system.tol3bus.reqLayer0.utilization              0.9                       # Layer utilization (%)
system.tol3bus.respLayer0.occupancy       18923991732                       # Layer occupancy (ticks)
system.tol3bus.respLayer0.utilization             0.7                       # Layer utilization (%)

---------- End Simulation Statistics   ----------
