
---------- Begin Simulation Statistics ----------
sim_seconds                                  2.624621                       # Number of seconds simulated
sim_ticks                                2624620689063                       # Number of ticks simulated
final_tick                               146101609006137                       # Number of ticks from beginning of simulation (restored from checkpoints and never reset)
sim_freq                                 1000000000000                       # Frequency of simulated ticks
host_inst_rate                                 275757                       # Simulator instruction rate (inst/s)
host_op_rate                                   275757                       # Simulator op (including micro ops) rate (op/s)
host_tick_rate                              603132135                       # Simulator tick rate (ticks/s)
host_mem_usage                                2540980                       # Number of bytes of host memory used
host_seconds                                  4351.65                       # Real time elapsed on the host
sim_insts                                  1200000006                       # Number of instructions simulated
sim_ops                                    1200000006                       # Number of ops (including micro ops) simulated
system.voltage_domain.voltage                       1                       # Voltage in Volts
system.clk_domain.clock                          1000                       # Clock period in ticks
system.mem_ctrls0.pwrStateResidencyTicks::UNDEFINED 146101609006137                       # Cumulative time (in ticks) in various power states
system.mem_ctrls0.bytes_read::cpu.inst            128                       # Number of bytes read from this memory
system.mem_ctrls0.bytes_read::cpu.data            256                       # Number of bytes read from this memory
system.mem_ctrls0.bytes_read::switch_cpus.inst        20864                       # Number of bytes read from this memory
system.mem_ctrls0.bytes_read::switch_cpus.data    461937024                       # Number of bytes read from this memory
system.mem_ctrls0.bytes_read::switch_cpus_1.inst         6720                       # Number of bytes read from this memory
system.mem_ctrls0.bytes_read::switch_cpus_1.data     84882752                       # Number of bytes read from this memory
system.mem_ctrls0.bytes_read::total         546847744                       # Number of bytes read from this memory
system.mem_ctrls0.bytes_inst_read::cpu.inst          128                       # Number of instructions bytes read from this memory
system.mem_ctrls0.bytes_inst_read::switch_cpus.inst        20864                       # Number of instructions bytes read from this memory
system.mem_ctrls0.bytes_inst_read::switch_cpus_1.inst         6720                       # Number of instructions bytes read from this memory
system.mem_ctrls0.bytes_inst_read::total        27712                       # Number of instructions bytes read from this memory
system.mem_ctrls0.bytes_written::writebacks    280538240                       # Number of bytes written to this memory
system.mem_ctrls0.bytes_written::total      280538240                       # Number of bytes written to this memory
system.mem_ctrls0.num_reads::cpu.inst               2                       # Number of read requests responded to by this memory
system.mem_ctrls0.num_reads::cpu.data               4                       # Number of read requests responded to by this memory
system.mem_ctrls0.num_reads::switch_cpus.inst          326                       # Number of read requests responded to by this memory
system.mem_ctrls0.num_reads::switch_cpus.data      7217766                       # Number of read requests responded to by this memory
system.mem_ctrls0.num_reads::switch_cpus_1.inst          105                       # Number of read requests responded to by this memory
system.mem_ctrls0.num_reads::switch_cpus_1.data      1326293                       # Number of read requests responded to by this memory
system.mem_ctrls0.num_reads::total            8544496                       # Number of read requests responded to by this memory
system.mem_ctrls0.num_writes::writebacks      4383410                       # Number of write requests responded to by this memory
system.mem_ctrls0.num_writes::total           4383410                       # Number of write requests responded to by this memory
system.mem_ctrls0.bw_read::cpu.inst                49                       # Total read bandwidth from this memory (bytes/s)
system.mem_ctrls0.bw_read::cpu.data                98                       # Total read bandwidth from this memory (bytes/s)
system.mem_ctrls0.bw_read::switch_cpus.inst         7949                       # Total read bandwidth from this memory (bytes/s)
system.mem_ctrls0.bw_read::switch_cpus.data    176001441                       # Total read bandwidth from this memory (bytes/s)
system.mem_ctrls0.bw_read::switch_cpus_1.inst         2560                       # Total read bandwidth from this memory (bytes/s)
system.mem_ctrls0.bw_read::switch_cpus_1.data     32340960                       # Total read bandwidth from this memory (bytes/s)
system.mem_ctrls0.bw_read::total            208353057                       # Total read bandwidth from this memory (bytes/s)
system.mem_ctrls0.bw_inst_read::cpu.inst           49                       # Instruction read bandwidth from this memory (bytes/s)
system.mem_ctrls0.bw_inst_read::switch_cpus.inst         7949                       # Instruction read bandwidth from this memory (bytes/s)
system.mem_ctrls0.bw_inst_read::switch_cpus_1.inst         2560                       # Instruction read bandwidth from this memory (bytes/s)
system.mem_ctrls0.bw_inst_read::total           10558                       # Instruction read bandwidth from this memory (bytes/s)
system.mem_ctrls0.bw_write::writebacks      106887156                       # Write bandwidth from this memory (bytes/s)
system.mem_ctrls0.bw_write::total           106887156                       # Write bandwidth from this memory (bytes/s)
system.mem_ctrls0.bw_total::writebacks      106887156                       # Total bandwidth to/from this memory (bytes/s)
system.mem_ctrls0.bw_total::cpu.inst               49                       # Total bandwidth to/from this memory (bytes/s)
system.mem_ctrls0.bw_total::cpu.data               98                       # Total bandwidth to/from this memory (bytes/s)
system.mem_ctrls0.bw_total::switch_cpus.inst         7949                       # Total bandwidth to/from this memory (bytes/s)
system.mem_ctrls0.bw_total::switch_cpus.data    176001441                       # Total bandwidth to/from this memory (bytes/s)
system.mem_ctrls0.bw_total::switch_cpus_1.inst         2560                       # Total bandwidth to/from this memory (bytes/s)
system.mem_ctrls0.bw_total::switch_cpus_1.data     32340960                       # Total bandwidth to/from this memory (bytes/s)
system.mem_ctrls0.bw_total::total           315240213                       # Total bandwidth to/from this memory (bytes/s)
system.mem_ctrls0.readReqs                    8544496                       # Number of read requests accepted
system.mem_ctrls0.writeReqs                   4383410                       # Number of write requests accepted
system.mem_ctrls0.readBursts                  8544496                       # Number of DRAM read bursts, including those serviced by the write queue
system.mem_ctrls0.writeBursts                 4383410                       # Number of DRAM write bursts, including those merged in the write queue
system.mem_ctrls0.bytesReadDRAM             546845888                       # Total number of bytes read from DRAM
system.mem_ctrls0.bytesReadWrQ                   1856                       # Total number of bytes read from write queue
system.mem_ctrls0.bytesWritten              280536384                       # Total number of bytes written to DRAM
system.mem_ctrls0.bytesReadSys              546847744                       # Total read bytes from the system interface side
system.mem_ctrls0.bytesWrittenSys           280538240                       # Total written bytes from the system interface side
system.mem_ctrls0.servicedByWrQ                    29                       # Number of DRAM read bursts serviced by the write queue
system.mem_ctrls0.mergedWrBursts                    0                       # Number of DRAM write bursts merged with an existing one
system.mem_ctrls0.neitherReadNorWriteReqs            0                       # Number of requests that are neither read nor write
system.mem_ctrls0.perBankRdBursts::0           534082                       # Per bank write bursts
system.mem_ctrls0.perBankRdBursts::1           533907                       # Per bank write bursts
system.mem_ctrls0.perBankRdBursts::2           534584                       # Per bank write bursts
system.mem_ctrls0.perBankRdBursts::3           535299                       # Per bank write bursts
system.mem_ctrls0.perBankRdBursts::4           534872                       # Per bank write bursts
system.mem_ctrls0.perBankRdBursts::5           533021                       # Per bank write bursts
system.mem_ctrls0.perBankRdBursts::6           533012                       # Per bank write bursts
system.mem_ctrls0.perBankRdBursts::7           534196                       # Per bank write bursts
system.mem_ctrls0.perBankRdBursts::8           534491                       # Per bank write bursts
system.mem_ctrls0.perBankRdBursts::9           533432                       # Per bank write bursts
system.mem_ctrls0.perBankRdBursts::10          532865                       # Per bank write bursts
system.mem_ctrls0.perBankRdBursts::11          533787                       # Per bank write bursts
system.mem_ctrls0.perBankRdBursts::12          534391                       # Per bank write bursts
system.mem_ctrls0.perBankRdBursts::13          533897                       # Per bank write bursts
system.mem_ctrls0.perBankRdBursts::14          534521                       # Per bank write bursts
system.mem_ctrls0.perBankRdBursts::15          534110                       # Per bank write bursts
system.mem_ctrls0.perBankWrBursts::0           275407                       # Per bank write bursts
system.mem_ctrls0.perBankWrBursts::1           274102                       # Per bank write bursts
system.mem_ctrls0.perBankWrBursts::2           273547                       # Per bank write bursts
system.mem_ctrls0.perBankWrBursts::3           274141                       # Per bank write bursts
system.mem_ctrls0.perBankWrBursts::4           274256                       # Per bank write bursts
system.mem_ctrls0.perBankWrBursts::5           273907                       # Per bank write bursts
system.mem_ctrls0.perBankWrBursts::6           273805                       # Per bank write bursts
system.mem_ctrls0.perBankWrBursts::7           273424                       # Per bank write bursts
system.mem_ctrls0.perBankWrBursts::8           273035                       # Per bank write bursts
system.mem_ctrls0.perBankWrBursts::9           272946                       # Per bank write bursts
system.mem_ctrls0.perBankWrBursts::10          273814                       # Per bank write bursts
system.mem_ctrls0.perBankWrBursts::11          275414                       # Per bank write bursts
system.mem_ctrls0.perBankWrBursts::12          274277                       # Per bank write bursts
system.mem_ctrls0.perBankWrBursts::13          272985                       # Per bank write bursts
system.mem_ctrls0.perBankWrBursts::14          273424                       # Per bank write bursts
system.mem_ctrls0.perBankWrBursts::15          274897                       # Per bank write bursts
system.mem_ctrls0.numRdRetry                        0                       # Number of times read queue was full causing retry
system.mem_ctrls0.numWrRetry                        0                       # Number of times write queue was full causing retry
system.mem_ctrls0.totGap                 2624620595157                       # Total gap between requests
system.mem_ctrls0.readPktSize::0                    0                       # Read request sizes (log2)
system.mem_ctrls0.readPktSize::1                    0                       # Read request sizes (log2)
system.mem_ctrls0.readPktSize::2                    0                       # Read request sizes (log2)
system.mem_ctrls0.readPktSize::3                    0                       # Read request sizes (log2)
system.mem_ctrls0.readPktSize::4                    0                       # Read request sizes (log2)
system.mem_ctrls0.readPktSize::5                    0                       # Read request sizes (log2)
system.mem_ctrls0.readPktSize::6              8544496                       # Read request sizes (log2)
system.mem_ctrls0.writePktSize::0                   0                       # Write request sizes (log2)
system.mem_ctrls0.writePktSize::1                   0                       # Write request sizes (log2)
system.mem_ctrls0.writePktSize::2                   0                       # Write request sizes (log2)
system.mem_ctrls0.writePktSize::3                   0                       # Write request sizes (log2)
system.mem_ctrls0.writePktSize::4                   0                       # Write request sizes (log2)
system.mem_ctrls0.writePktSize::5                   0                       # Write request sizes (log2)
system.mem_ctrls0.writePktSize::6             4383410                       # Write request sizes (log2)
system.mem_ctrls0.rdQLenPdf::0                8075506                       # What read queue length does an incoming req see
system.mem_ctrls0.rdQLenPdf::1                 337671                       # What read queue length does an incoming req see
system.mem_ctrls0.rdQLenPdf::2                 112077                       # What read queue length does an incoming req see
system.mem_ctrls0.rdQLenPdf::3                  19212                       # What read queue length does an incoming req see
system.mem_ctrls0.rdQLenPdf::4                      1                       # What read queue length does an incoming req see
system.mem_ctrls0.rdQLenPdf::5                      0                       # What read queue length does an incoming req see
system.mem_ctrls0.rdQLenPdf::6                      0                       # What read queue length does an incoming req see
system.mem_ctrls0.rdQLenPdf::7                      0                       # What read queue length does an incoming req see
system.mem_ctrls0.rdQLenPdf::8                      0                       # What read queue length does an incoming req see
system.mem_ctrls0.rdQLenPdf::9                      0                       # What read queue length does an incoming req see
system.mem_ctrls0.rdQLenPdf::10                     0                       # What read queue length does an incoming req see
system.mem_ctrls0.rdQLenPdf::11                     0                       # What read queue length does an incoming req see
system.mem_ctrls0.rdQLenPdf::12                     0                       # What read queue length does an incoming req see
system.mem_ctrls0.rdQLenPdf::13                     0                       # What read queue length does an incoming req see
system.mem_ctrls0.rdQLenPdf::14                     0                       # What read queue length does an incoming req see
system.mem_ctrls0.rdQLenPdf::15                     0                       # What read queue length does an incoming req see
system.mem_ctrls0.rdQLenPdf::16                     0                       # What read queue length does an incoming req see
system.mem_ctrls0.rdQLenPdf::17                     0                       # What read queue length does an incoming req see
system.mem_ctrls0.rdQLenPdf::18                     0                       # What read queue length does an incoming req see
system.mem_ctrls0.rdQLenPdf::19                     0                       # What read queue length does an incoming req see
system.mem_ctrls0.rdQLenPdf::20                     0                       # What read queue length does an incoming req see
system.mem_ctrls0.rdQLenPdf::21                     0                       # What read queue length does an incoming req see
system.mem_ctrls0.rdQLenPdf::22                     0                       # What read queue length does an incoming req see
system.mem_ctrls0.rdQLenPdf::23                     0                       # What read queue length does an incoming req see
system.mem_ctrls0.rdQLenPdf::24                     0                       # What read queue length does an incoming req see
system.mem_ctrls0.rdQLenPdf::25                     0                       # What read queue length does an incoming req see
system.mem_ctrls0.rdQLenPdf::26                     0                       # What read queue length does an incoming req see
system.mem_ctrls0.rdQLenPdf::27                     0                       # What read queue length does an incoming req see
system.mem_ctrls0.rdQLenPdf::28                     0                       # What read queue length does an incoming req see
system.mem_ctrls0.rdQLenPdf::29                     0                       # What read queue length does an incoming req see
system.mem_ctrls0.rdQLenPdf::30                     0                       # What read queue length does an incoming req see
system.mem_ctrls0.rdQLenPdf::31                     0                       # What read queue length does an incoming req see
system.mem_ctrls0.wrQLenPdf::0                      2                       # What write queue length does an incoming req see
system.mem_ctrls0.wrQLenPdf::1                      2                       # What write queue length does an incoming req see
system.mem_ctrls0.wrQLenPdf::2                      2                       # What write queue length does an incoming req see
system.mem_ctrls0.wrQLenPdf::3                      2                       # What write queue length does an incoming req see
system.mem_ctrls0.wrQLenPdf::4                      2                       # What write queue length does an incoming req see
system.mem_ctrls0.wrQLenPdf::5                      2                       # What write queue length does an incoming req see
system.mem_ctrls0.wrQLenPdf::6                      2                       # What write queue length does an incoming req see
system.mem_ctrls0.wrQLenPdf::7                      2                       # What write queue length does an incoming req see
system.mem_ctrls0.wrQLenPdf::8                      2                       # What write queue length does an incoming req see
system.mem_ctrls0.wrQLenPdf::9                      2                       # What write queue length does an incoming req see
system.mem_ctrls0.wrQLenPdf::10                     2                       # What write queue length does an incoming req see
system.mem_ctrls0.wrQLenPdf::11                     2                       # What write queue length does an incoming req see
system.mem_ctrls0.wrQLenPdf::12                     2                       # What write queue length does an incoming req see
system.mem_ctrls0.wrQLenPdf::13                     2                       # What write queue length does an incoming req see
system.mem_ctrls0.wrQLenPdf::14                     2                       # What write queue length does an incoming req see
system.mem_ctrls0.wrQLenPdf::15                136245                       # What write queue length does an incoming req see
system.mem_ctrls0.wrQLenPdf::16                143278                       # What write queue length does an incoming req see
system.mem_ctrls0.wrQLenPdf::17                245995                       # What write queue length does an incoming req see
system.mem_ctrls0.wrQLenPdf::18                255955                       # What write queue length does an incoming req see
system.mem_ctrls0.wrQLenPdf::19                257355                       # What write queue length does an incoming req see
system.mem_ctrls0.wrQLenPdf::20                257387                       # What write queue length does an incoming req see
system.mem_ctrls0.wrQLenPdf::21                257208                       # What write queue length does an incoming req see
system.mem_ctrls0.wrQLenPdf::22                257142                       # What write queue length does an incoming req see
system.mem_ctrls0.wrQLenPdf::23                257338                       # What write queue length does an incoming req see
system.mem_ctrls0.wrQLenPdf::24                257218                       # What write queue length does an incoming req see
system.mem_ctrls0.wrQLenPdf::25                257066                       # What write queue length does an incoming req see
system.mem_ctrls0.wrQLenPdf::26                256980                       # What write queue length does an incoming req see
system.mem_ctrls0.wrQLenPdf::27                256997                       # What write queue length does an incoming req see
system.mem_ctrls0.wrQLenPdf::28                257323                       # What write queue length does an incoming req see
system.mem_ctrls0.wrQLenPdf::29                257907                       # What write queue length does an incoming req see
system.mem_ctrls0.wrQLenPdf::30                259552                       # What write queue length does an incoming req see
system.mem_ctrls0.wrQLenPdf::31                256192                       # What write queue length does an incoming req see
system.mem_ctrls0.wrQLenPdf::32                255850                       # What write queue length does an incoming req see
system.mem_ctrls0.wrQLenPdf::33                   316                       # What write queue length does an incoming req see
system.mem_ctrls0.wrQLenPdf::34                    58                       # What write queue length does an incoming req see
system.mem_ctrls0.wrQLenPdf::35                    15                       # What write queue length does an incoming req see
system.mem_ctrls0.wrQLenPdf::36                     3                       # What write queue length does an incoming req see
system.mem_ctrls0.wrQLenPdf::37                     0                       # What write queue length does an incoming req see
system.mem_ctrls0.wrQLenPdf::38                     0                       # What write queue length does an incoming req see
system.mem_ctrls0.wrQLenPdf::39                     0                       # What write queue length does an incoming req see
system.mem_ctrls0.wrQLenPdf::40                     0                       # What write queue length does an incoming req see
system.mem_ctrls0.wrQLenPdf::41                     0                       # What write queue length does an incoming req see
system.mem_ctrls0.wrQLenPdf::42                     0                       # What write queue length does an incoming req see
system.mem_ctrls0.wrQLenPdf::43                     0                       # What write queue length does an incoming req see
system.mem_ctrls0.wrQLenPdf::44                     0                       # What write queue length does an incoming req see
system.mem_ctrls0.wrQLenPdf::45                     0                       # What write queue length does an incoming req see
system.mem_ctrls0.wrQLenPdf::46                     0                       # What write queue length does an incoming req see
system.mem_ctrls0.wrQLenPdf::47                     0                       # What write queue length does an incoming req see
system.mem_ctrls0.wrQLenPdf::48                     0                       # What write queue length does an incoming req see
system.mem_ctrls0.wrQLenPdf::49                     0                       # What write queue length does an incoming req see
system.mem_ctrls0.wrQLenPdf::50                     0                       # What write queue length does an incoming req see
system.mem_ctrls0.wrQLenPdf::51                     0                       # What write queue length does an incoming req see
system.mem_ctrls0.wrQLenPdf::52                     0                       # What write queue length does an incoming req see
system.mem_ctrls0.wrQLenPdf::53                     0                       # What write queue length does an incoming req see
system.mem_ctrls0.wrQLenPdf::54                     0                       # What write queue length does an incoming req see
system.mem_ctrls0.wrQLenPdf::55                     0                       # What write queue length does an incoming req see
system.mem_ctrls0.wrQLenPdf::56                     0                       # What write queue length does an incoming req see
system.mem_ctrls0.wrQLenPdf::57                     0                       # What write queue length does an incoming req see
system.mem_ctrls0.wrQLenPdf::58                     0                       # What write queue length does an incoming req see
system.mem_ctrls0.wrQLenPdf::59                     0                       # What write queue length does an incoming req see
system.mem_ctrls0.wrQLenPdf::60                     0                       # What write queue length does an incoming req see
system.mem_ctrls0.wrQLenPdf::61                     0                       # What write queue length does an incoming req see
system.mem_ctrls0.wrQLenPdf::62                     0                       # What write queue length does an incoming req see
system.mem_ctrls0.wrQLenPdf::63                     0                       # What write queue length does an incoming req see
system.mem_ctrls0.bytesPerActivate::samples      8997314                       # Bytes accessed per row activation
system.mem_ctrls0.bytesPerActivate::mean    91.958666                       # Bytes accessed per row activation
system.mem_ctrls0.bytesPerActivate::gmean    81.855919                       # Bytes accessed per row activation
system.mem_ctrls0.bytesPerActivate::stdev    57.126817                       # Bytes accessed per row activation
system.mem_ctrls0.bytesPerActivate::0-127      6538771     72.67%     72.67% # Bytes accessed per row activation
system.mem_ctrls0.bytesPerActivate::128-255      2057279     22.87%     95.54% # Bytes accessed per row activation
system.mem_ctrls0.bytesPerActivate::256-383       361565      4.02%     99.56% # Bytes accessed per row activation
system.mem_ctrls0.bytesPerActivate::384-511        29101      0.32%     99.88% # Bytes accessed per row activation
system.mem_ctrls0.bytesPerActivate::512-639         6217      0.07%     99.95% # Bytes accessed per row activation
system.mem_ctrls0.bytesPerActivate::640-767         2012      0.02%     99.97% # Bytes accessed per row activation
system.mem_ctrls0.bytesPerActivate::768-895          857      0.01%     99.98% # Bytes accessed per row activation
system.mem_ctrls0.bytesPerActivate::896-1023          440      0.00%     99.99% # Bytes accessed per row activation
system.mem_ctrls0.bytesPerActivate::1024-1151         1072      0.01%    100.00% # Bytes accessed per row activation
system.mem_ctrls0.bytesPerActivate::total      8997314                       # Bytes accessed per row activation
system.mem_ctrls0.rdPerTurnAround::samples       255608                       # Reads before turning the bus around for writes
system.mem_ctrls0.rdPerTurnAround::mean     33.427905                       # Reads before turning the bus around for writes
system.mem_ctrls0.rdPerTurnAround::stdev    55.968154                       # Reads before turning the bus around for writes
system.mem_ctrls0.rdPerTurnAround::0-1023       255605    100.00%    100.00% # Reads before turning the bus around for writes
system.mem_ctrls0.rdPerTurnAround::1024-2047            2      0.00%    100.00% # Reads before turning the bus around for writes
system.mem_ctrls0.rdPerTurnAround::27648-28671            1      0.00%    100.00% # Reads before turning the bus around for writes
system.mem_ctrls0.rdPerTurnAround::total       255608                       # Reads before turning the bus around for writes
system.mem_ctrls0.wrPerTurnAround::samples       255608                       # Writes before turning the bus around for reads
system.mem_ctrls0.wrPerTurnAround::mean     17.148841                       # Writes before turning the bus around for reads
system.mem_ctrls0.wrPerTurnAround::gmean    17.115318                       # Writes before turning the bus around for reads
system.mem_ctrls0.wrPerTurnAround::stdev     1.072961                       # Writes before turning the bus around for reads
system.mem_ctrls0.wrPerTurnAround::16          113996     44.60%     44.60% # Writes before turning the bus around for reads
system.mem_ctrls0.wrPerTurnAround::17            4282      1.68%     46.27% # Writes before turning the bus around for reads
system.mem_ctrls0.wrPerTurnAround::18          124259     48.61%     94.89% # Writes before turning the bus around for reads
system.mem_ctrls0.wrPerTurnAround::19           11787      4.61%     99.50% # Writes before turning the bus around for reads
system.mem_ctrls0.wrPerTurnAround::20            1056      0.41%     99.91% # Writes before turning the bus around for reads
system.mem_ctrls0.wrPerTurnAround::21             163      0.06%     99.97% # Writes before turning the bus around for reads
system.mem_ctrls0.wrPerTurnAround::22              31      0.01%     99.99% # Writes before turning the bus around for reads
system.mem_ctrls0.wrPerTurnAround::23              17      0.01%     99.99% # Writes before turning the bus around for reads
system.mem_ctrls0.wrPerTurnAround::24               9      0.00%    100.00% # Writes before turning the bus around for reads
system.mem_ctrls0.wrPerTurnAround::25               6      0.00%    100.00% # Writes before turning the bus around for reads
system.mem_ctrls0.wrPerTurnAround::26               1      0.00%    100.00% # Writes before turning the bus around for reads
system.mem_ctrls0.wrPerTurnAround::28               1      0.00%    100.00% # Writes before turning the bus around for reads
system.mem_ctrls0.wrPerTurnAround::total       255608                       # Writes before turning the bus around for reads
system.mem_ctrls0.totQLat                229069945519                       # Total ticks spent queuing
system.mem_ctrls0.totMemAccLat           389278701769                       # Total ticks spent from burst creation until serviced by the DRAM
system.mem_ctrls0.totBusLat               42722335000                       # Total ticks spent in databus transfers
system.mem_ctrls0.avgQLat                    26809.16                       # Average queueing delay per DRAM burst
system.mem_ctrls0.avgBusLat                   5000.00                       # Average bus latency per DRAM burst
system.mem_ctrls0.avgMemAccLat               45559.16                       # Average memory access latency per DRAM burst
system.mem_ctrls0.avgRdBW                      208.35                       # Average DRAM read bandwidth in MiByte/s
system.mem_ctrls0.avgWrBW                      106.89                       # Average achieved write bandwidth in MiByte/s
system.mem_ctrls0.avgRdBWSys                   208.35                       # Average system read bandwidth in MiByte/s
system.mem_ctrls0.avgWrBWSys                   106.89                       # Average system write bandwidth in MiByte/s
system.mem_ctrls0.peakBW                     12800.00                       # Theoretical peak bandwidth in MiByte/s
system.mem_ctrls0.busUtil                        2.46                       # Data bus utilization in percentage
system.mem_ctrls0.busUtilRead                    1.63                       # Data bus utilization in percentage for reads
system.mem_ctrls0.busUtilWrite                   0.84                       # Data bus utilization in percentage for writes
system.mem_ctrls0.avgRdQLen                      1.03                       # Average read queue length when enqueuing
system.mem_ctrls0.avgWrQLen                     24.82                       # Average write queue length when enqueuing
system.mem_ctrls0.readRowHits                 3069230                       # Number of row buffer hits during reads
system.mem_ctrls0.writeRowHits                 861300                       # Number of row buffer hits during writes
system.mem_ctrls0.readRowHitRate                35.92                       # Row buffer hit rate for reads
system.mem_ctrls0.writeRowHitRate               19.65                       # Row buffer hit rate for writes
system.mem_ctrls0.avgGap                    203019.78                       # Average gap between requests
system.mem_ctrls0.pageHitRate                   30.40                       # Row buffer hit rate, read and write combined
system.mem_ctrls0_0.actEnergy             32106323760                       # Energy for activate commands per rank (pJ)
system.mem_ctrls0_0.preEnergy             17064900600                       # Energy for precharge commands per rank (pJ)
system.mem_ctrls0_0.readEnergy            30509027220                       # Energy for read commands per rank (pJ)
system.mem_ctrls0_0.writeEnergy           11445314580                       # Energy for write commands per rank (pJ)
system.mem_ctrls0_0.refreshEnergy        206682534240.000061                       # Energy for refresh commands per rank (pJ)
system.mem_ctrls0_0.actBackEnergy        194698297200                       # Energy for active background per rank (pJ)
system.mem_ctrls0_0.preBackEnergy          5366554080                       # Energy for precharge background per rank (pJ)
system.mem_ctrls0_0.actPowerDownEnergy   883891232610                       # Energy for active power-down per rank (pJ)
system.mem_ctrls0_0.prePowerDownEnergy    77848307040                       # Energy for precharge power-down per rank (pJ)
system.mem_ctrls0_0.selfRefreshEnergy     12984689475                       # Energy for self refresh per rank (pJ)
system.mem_ctrls0_0.totalEnergy          1472616400125                       # Total energy per rank (pJ)
system.mem_ctrls0_0.averagePower           561.077796                       # Core power per rank (mW)
system.mem_ctrls0_0.totalIdleTime        2183632409102                       # Total Idle time Per DRAM Rank
system.mem_ctrls0_0.memoryStateTime::IDLE   3276010264                       # Time in different power states
system.mem_ctrls0_0.memoryStateTime::REF  87461080000                       # Time in different power states
system.mem_ctrls0_0.memoryStateTime::SREF  42544680553                       # Time in different power states
system.mem_ctrls0_0.memoryStateTime::PRE_PDN 202732155480                       # Time in different power states
system.mem_ctrls0_0.memoryStateTime::ACT 350251135526                       # Time in different power states
system.mem_ctrls0_0.memoryStateTime::ACT_PDN 1938355627240                       # Time in different power states
system.mem_ctrls0_1.actEnergy             32134526760                       # Energy for activate commands per rank (pJ)
system.mem_ctrls0_1.preEnergy             17079906030                       # Energy for precharge commands per rank (pJ)
system.mem_ctrls0_1.readEnergy            30498467160                       # Energy for read commands per rank (pJ)
system.mem_ctrls0_1.writeEnergy           11435934240                       # Energy for write commands per rank (pJ)
system.mem_ctrls0_1.refreshEnergy        206315594160.000061                       # Energy for refresh commands per rank (pJ)
system.mem_ctrls0_1.actBackEnergy        193940172690                       # Energy for active background per rank (pJ)
system.mem_ctrls0_1.preBackEnergy          5349486720                       # Energy for precharge background per rank (pJ)
system.mem_ctrls0_1.actPowerDownEnergy   884472284910                       # Energy for active power-down per rank (pJ)
system.mem_ctrls0_1.prePowerDownEnergy    77126842080                       # Energy for precharge power-down per rank (pJ)
system.mem_ctrls0_1.selfRefreshEnergy     13362057120                       # Energy for self refresh per rank (pJ)
system.mem_ctrls0_1.totalEnergy          1471736036580                       # Total energy per rank (pJ)
system.mem_ctrls0_1.averagePower           560.742372                       # Core power per rank (mW)
system.mem_ctrls0_1.totalIdleTime        2185338290390                       # Total Idle time Per DRAM Rank
system.mem_ctrls0_1.memoryStateTime::IDLE   3195970947                       # Time in different power states
system.mem_ctrls0_1.memoryStateTime::REF  87303814000                       # Time in different power states
system.mem_ctrls0_1.memoryStateTime::SREF  44852751250                       # Time in different power states
system.mem_ctrls0_1.memoryStateTime::PRE_PDN 200847217408                       # Time in different power states
system.mem_ctrls0_1.memoryStateTime::ACT 348780784329                       # Time in different power states
system.mem_ctrls0_1.memoryStateTime::ACT_PDN 1939640151129                       # Time in different power states
system.mem_ctrls1.pwrStateResidencyTicks::UNDEFINED 146101609006137                       # Cumulative time (in ticks) in various power states
system.mem_ctrls1.bytes_read::cpu.inst             64                       # Number of bytes read from this memory
system.mem_ctrls1.bytes_read::cpu.data             64                       # Number of bytes read from this memory
system.mem_ctrls1.bytes_read::switch_cpus.inst        20288                       # Number of bytes read from this memory
system.mem_ctrls1.bytes_read::switch_cpus.data    461899072                       # Number of bytes read from this memory
system.mem_ctrls1.bytes_read::switch_cpus_1.inst         6656                       # Number of bytes read from this memory
system.mem_ctrls1.bytes_read::switch_cpus_1.data     84896704                       # Number of bytes read from this memory
system.mem_ctrls1.bytes_read::total         546822848                       # Number of bytes read from this memory
system.mem_ctrls1.bytes_inst_read::cpu.inst           64                       # Number of instructions bytes read from this memory
system.mem_ctrls1.bytes_inst_read::switch_cpus.inst        20288                       # Number of instructions bytes read from this memory
system.mem_ctrls1.bytes_inst_read::switch_cpus_1.inst         6656                       # Number of instructions bytes read from this memory
system.mem_ctrls1.bytes_inst_read::total        27008                       # Number of instructions bytes read from this memory
system.mem_ctrls1.bytes_written::writebacks    280527232                       # Number of bytes written to this memory
system.mem_ctrls1.bytes_written::total      280527232                       # Number of bytes written to this memory
system.mem_ctrls1.num_reads::cpu.inst               1                       # Number of read requests responded to by this memory
system.mem_ctrls1.num_reads::cpu.data               1                       # Number of read requests responded to by this memory
system.mem_ctrls1.num_reads::switch_cpus.inst          317                       # Number of read requests responded to by this memory
system.mem_ctrls1.num_reads::switch_cpus.data      7217173                       # Number of read requests responded to by this memory
system.mem_ctrls1.num_reads::switch_cpus_1.inst          104                       # Number of read requests responded to by this memory
system.mem_ctrls1.num_reads::switch_cpus_1.data      1326511                       # Number of read requests responded to by this memory
system.mem_ctrls1.num_reads::total            8544107                       # Number of read requests responded to by this memory
system.mem_ctrls1.num_writes::writebacks      4383238                       # Number of write requests responded to by this memory
system.mem_ctrls1.num_writes::total           4383238                       # Number of write requests responded to by this memory
system.mem_ctrls1.bw_read::cpu.inst                24                       # Total read bandwidth from this memory (bytes/s)
system.mem_ctrls1.bw_read::cpu.data                24                       # Total read bandwidth from this memory (bytes/s)
system.mem_ctrls1.bw_read::switch_cpus.inst         7730                       # Total read bandwidth from this memory (bytes/s)
system.mem_ctrls1.bw_read::switch_cpus.data    175986981                       # Total read bandwidth from this memory (bytes/s)
system.mem_ctrls1.bw_read::switch_cpus_1.inst         2536                       # Total read bandwidth from this memory (bytes/s)
system.mem_ctrls1.bw_read::switch_cpus_1.data     32346276                       # Total read bandwidth from this memory (bytes/s)
system.mem_ctrls1.bw_read::total            208343571                       # Total read bandwidth from this memory (bytes/s)
system.mem_ctrls1.bw_inst_read::cpu.inst           24                       # Instruction read bandwidth from this memory (bytes/s)
system.mem_ctrls1.bw_inst_read::switch_cpus.inst         7730                       # Instruction read bandwidth from this memory (bytes/s)
system.mem_ctrls1.bw_inst_read::switch_cpus_1.inst         2536                       # Instruction read bandwidth from this memory (bytes/s)
system.mem_ctrls1.bw_inst_read::total           10290                       # Instruction read bandwidth from this memory (bytes/s)
system.mem_ctrls1.bw_write::writebacks      106882961                       # Write bandwidth from this memory (bytes/s)
system.mem_ctrls1.bw_write::total           106882961                       # Write bandwidth from this memory (bytes/s)
system.mem_ctrls1.bw_total::writebacks      106882961                       # Total bandwidth to/from this memory (bytes/s)
system.mem_ctrls1.bw_total::cpu.inst               24                       # Total bandwidth to/from this memory (bytes/s)
system.mem_ctrls1.bw_total::cpu.data               24                       # Total bandwidth to/from this memory (bytes/s)
system.mem_ctrls1.bw_total::switch_cpus.inst         7730                       # Total bandwidth to/from this memory (bytes/s)
system.mem_ctrls1.bw_total::switch_cpus.data    175986981                       # Total bandwidth to/from this memory (bytes/s)
system.mem_ctrls1.bw_total::switch_cpus_1.inst         2536                       # Total bandwidth to/from this memory (bytes/s)
system.mem_ctrls1.bw_total::switch_cpus_1.data     32346276                       # Total bandwidth to/from this memory (bytes/s)
system.mem_ctrls1.bw_total::total           315226533                       # Total bandwidth to/from this memory (bytes/s)
system.mem_ctrls1.readReqs                    8544107                       # Number of read requests accepted
system.mem_ctrls1.writeReqs                   4383238                       # Number of write requests accepted
system.mem_ctrls1.readBursts                  8544107                       # Number of DRAM read bursts, including those serviced by the write queue
system.mem_ctrls1.writeBursts                 4383238                       # Number of DRAM write bursts, including those merged in the write queue
system.mem_ctrls1.bytesReadDRAM             546821120                       # Total number of bytes read from DRAM
system.mem_ctrls1.bytesReadWrQ                   1728                       # Total number of bytes read from write queue
system.mem_ctrls1.bytesWritten              280525568                       # Total number of bytes written to DRAM
system.mem_ctrls1.bytesReadSys              546822848                       # Total read bytes from the system interface side
system.mem_ctrls1.bytesWrittenSys           280527232                       # Total written bytes from the system interface side
system.mem_ctrls1.servicedByWrQ                    27                       # Number of DRAM read bursts serviced by the write queue
system.mem_ctrls1.mergedWrBursts                    0                       # Number of DRAM write bursts merged with an existing one
system.mem_ctrls1.neitherReadNorWriteReqs            0                       # Number of requests that are neither read nor write
system.mem_ctrls1.perBankRdBursts::0           533442                       # Per bank write bursts
system.mem_ctrls1.perBankRdBursts::1           533829                       # Per bank write bursts
system.mem_ctrls1.perBankRdBursts::2           534327                       # Per bank write bursts
system.mem_ctrls1.perBankRdBursts::3           535608                       # Per bank write bursts
system.mem_ctrls1.perBankRdBursts::4           534906                       # Per bank write bursts
system.mem_ctrls1.perBankRdBursts::5           533132                       # Per bank write bursts
system.mem_ctrls1.perBankRdBursts::6           533112                       # Per bank write bursts
system.mem_ctrls1.perBankRdBursts::7           533789                       # Per bank write bursts
system.mem_ctrls1.perBankRdBursts::8           535110                       # Per bank write bursts
system.mem_ctrls1.perBankRdBursts::9           533028                       # Per bank write bursts
system.mem_ctrls1.perBankRdBursts::10          533048                       # Per bank write bursts
system.mem_ctrls1.perBankRdBursts::11          533961                       # Per bank write bursts
system.mem_ctrls1.perBankRdBursts::12          534217                       # Per bank write bursts
system.mem_ctrls1.perBankRdBursts::13          533879                       # Per bank write bursts
system.mem_ctrls1.perBankRdBursts::14          534491                       # Per bank write bursts
system.mem_ctrls1.perBankRdBursts::15          534201                       # Per bank write bursts
system.mem_ctrls1.perBankWrBursts::0           275305                       # Per bank write bursts
system.mem_ctrls1.perBankWrBursts::1           274241                       # Per bank write bursts
system.mem_ctrls1.perBankWrBursts::2           273370                       # Per bank write bursts
system.mem_ctrls1.perBankWrBursts::3           274232                       # Per bank write bursts
system.mem_ctrls1.perBankWrBursts::4           274157                       # Per bank write bursts
system.mem_ctrls1.perBankWrBursts::5           273933                       # Per bank write bursts
system.mem_ctrls1.perBankWrBursts::6           273825                       # Per bank write bursts
system.mem_ctrls1.perBankWrBursts::7           273235                       # Per bank write bursts
system.mem_ctrls1.perBankWrBursts::8           273179                       # Per bank write bursts
system.mem_ctrls1.perBankWrBursts::9           272904                       # Per bank write bursts
system.mem_ctrls1.perBankWrBursts::10          273979                       # Per bank write bursts
system.mem_ctrls1.perBankWrBursts::11          275375                       # Per bank write bursts
system.mem_ctrls1.perBankWrBursts::12          274194                       # Per bank write bursts
system.mem_ctrls1.perBankWrBursts::13          272970                       # Per bank write bursts
system.mem_ctrls1.perBankWrBursts::14          273375                       # Per bank write bursts
system.mem_ctrls1.perBankWrBursts::15          274938                       # Per bank write bursts
system.mem_ctrls1.numRdRetry                        0                       # Number of times read queue was full causing retry
system.mem_ctrls1.numWrRetry                        0                       # Number of times write queue was full causing retry
system.mem_ctrls1.totGap                 2624620479939                       # Total gap between requests
system.mem_ctrls1.readPktSize::0                    0                       # Read request sizes (log2)
system.mem_ctrls1.readPktSize::1                    0                       # Read request sizes (log2)
system.mem_ctrls1.readPktSize::2                    0                       # Read request sizes (log2)
system.mem_ctrls1.readPktSize::3                    0                       # Read request sizes (log2)
system.mem_ctrls1.readPktSize::4                    0                       # Read request sizes (log2)
system.mem_ctrls1.readPktSize::5                    0                       # Read request sizes (log2)
system.mem_ctrls1.readPktSize::6              8544107                       # Read request sizes (log2)
system.mem_ctrls1.writePktSize::0                   0                       # Write request sizes (log2)
system.mem_ctrls1.writePktSize::1                   0                       # Write request sizes (log2)
system.mem_ctrls1.writePktSize::2                   0                       # Write request sizes (log2)
system.mem_ctrls1.writePktSize::3                   0                       # Write request sizes (log2)
system.mem_ctrls1.writePktSize::4                   0                       # Write request sizes (log2)
system.mem_ctrls1.writePktSize::5                   0                       # Write request sizes (log2)
system.mem_ctrls1.writePktSize::6             4383238                       # Write request sizes (log2)
system.mem_ctrls1.rdQLenPdf::0                8074986                       # What read queue length does an incoming req see
system.mem_ctrls1.rdQLenPdf::1                 337361                       # What read queue length does an incoming req see
system.mem_ctrls1.rdQLenPdf::2                 112308                       # What read queue length does an incoming req see
system.mem_ctrls1.rdQLenPdf::3                  19424                       # What read queue length does an incoming req see
system.mem_ctrls1.rdQLenPdf::4                      1                       # What read queue length does an incoming req see
system.mem_ctrls1.rdQLenPdf::5                      0                       # What read queue length does an incoming req see
system.mem_ctrls1.rdQLenPdf::6                      0                       # What read queue length does an incoming req see
system.mem_ctrls1.rdQLenPdf::7                      0                       # What read queue length does an incoming req see
system.mem_ctrls1.rdQLenPdf::8                      0                       # What read queue length does an incoming req see
system.mem_ctrls1.rdQLenPdf::9                      0                       # What read queue length does an incoming req see
system.mem_ctrls1.rdQLenPdf::10                     0                       # What read queue length does an incoming req see
system.mem_ctrls1.rdQLenPdf::11                     0                       # What read queue length does an incoming req see
system.mem_ctrls1.rdQLenPdf::12                     0                       # What read queue length does an incoming req see
system.mem_ctrls1.rdQLenPdf::13                     0                       # What read queue length does an incoming req see
system.mem_ctrls1.rdQLenPdf::14                     0                       # What read queue length does an incoming req see
system.mem_ctrls1.rdQLenPdf::15                     0                       # What read queue length does an incoming req see
system.mem_ctrls1.rdQLenPdf::16                     0                       # What read queue length does an incoming req see
system.mem_ctrls1.rdQLenPdf::17                     0                       # What read queue length does an incoming req see
system.mem_ctrls1.rdQLenPdf::18                     0                       # What read queue length does an incoming req see
system.mem_ctrls1.rdQLenPdf::19                     0                       # What read queue length does an incoming req see
system.mem_ctrls1.rdQLenPdf::20                     0                       # What read queue length does an incoming req see
system.mem_ctrls1.rdQLenPdf::21                     0                       # What read queue length does an incoming req see
system.mem_ctrls1.rdQLenPdf::22                     0                       # What read queue length does an incoming req see
system.mem_ctrls1.rdQLenPdf::23                     0                       # What read queue length does an incoming req see
system.mem_ctrls1.rdQLenPdf::24                     0                       # What read queue length does an incoming req see
system.mem_ctrls1.rdQLenPdf::25                     0                       # What read queue length does an incoming req see
system.mem_ctrls1.rdQLenPdf::26                     0                       # What read queue length does an incoming req see
system.mem_ctrls1.rdQLenPdf::27                     0                       # What read queue length does an incoming req see
system.mem_ctrls1.rdQLenPdf::28                     0                       # What read queue length does an incoming req see
system.mem_ctrls1.rdQLenPdf::29                     0                       # What read queue length does an incoming req see
system.mem_ctrls1.rdQLenPdf::30                     0                       # What read queue length does an incoming req see
system.mem_ctrls1.rdQLenPdf::31                     0                       # What read queue length does an incoming req see
system.mem_ctrls1.wrQLenPdf::0                      2                       # What write queue length does an incoming req see
system.mem_ctrls1.wrQLenPdf::1                      2                       # What write queue length does an incoming req see
system.mem_ctrls1.wrQLenPdf::2                      2                       # What write queue length does an incoming req see
system.mem_ctrls1.wrQLenPdf::3                      2                       # What write queue length does an incoming req see
system.mem_ctrls1.wrQLenPdf::4                      2                       # What write queue length does an incoming req see
system.mem_ctrls1.wrQLenPdf::5                      2                       # What write queue length does an incoming req see
system.mem_ctrls1.wrQLenPdf::6                      2                       # What write queue length does an incoming req see
system.mem_ctrls1.wrQLenPdf::7                      2                       # What write queue length does an incoming req see
system.mem_ctrls1.wrQLenPdf::8                      2                       # What write queue length does an incoming req see
system.mem_ctrls1.wrQLenPdf::9                      2                       # What write queue length does an incoming req see
system.mem_ctrls1.wrQLenPdf::10                     2                       # What write queue length does an incoming req see
system.mem_ctrls1.wrQLenPdf::11                     2                       # What write queue length does an incoming req see
system.mem_ctrls1.wrQLenPdf::12                     2                       # What write queue length does an incoming req see
system.mem_ctrls1.wrQLenPdf::13                     2                       # What write queue length does an incoming req see
system.mem_ctrls1.wrQLenPdf::14                     2                       # What write queue length does an incoming req see
system.mem_ctrls1.wrQLenPdf::15                136148                       # What write queue length does an incoming req see
system.mem_ctrls1.wrQLenPdf::16                143376                       # What write queue length does an incoming req see
system.mem_ctrls1.wrQLenPdf::17                246069                       # What write queue length does an incoming req see
system.mem_ctrls1.wrQLenPdf::18                255795                       # What write queue length does an incoming req see
system.mem_ctrls1.wrQLenPdf::19                257517                       # What write queue length does an incoming req see
system.mem_ctrls1.wrQLenPdf::20                257347                       # What write queue length does an incoming req see
system.mem_ctrls1.wrQLenPdf::21                257094                       # What write queue length does an incoming req see
system.mem_ctrls1.wrQLenPdf::22                257057                       # What write queue length does an incoming req see
system.mem_ctrls1.wrQLenPdf::23                257267                       # What write queue length does an incoming req see
system.mem_ctrls1.wrQLenPdf::24                257201                       # What write queue length does an incoming req see
system.mem_ctrls1.wrQLenPdf::25                257076                       # What write queue length does an incoming req see
system.mem_ctrls1.wrQLenPdf::26                256926                       # What write queue length does an incoming req see
system.mem_ctrls1.wrQLenPdf::27                256950                       # What write queue length does an incoming req see
system.mem_ctrls1.wrQLenPdf::28                257402                       # What write queue length does an incoming req see
system.mem_ctrls1.wrQLenPdf::29                257850                       # What write queue length does an incoming req see
system.mem_ctrls1.wrQLenPdf::30                259636                       # What write queue length does an incoming req see
system.mem_ctrls1.wrQLenPdf::31                256261                       # What write queue length does an incoming req see
system.mem_ctrls1.wrQLenPdf::32                255865                       # What write queue length does an incoming req see
system.mem_ctrls1.wrQLenPdf::33                   307                       # What write queue length does an incoming req see
system.mem_ctrls1.wrQLenPdf::34                    51                       # What write queue length does an incoming req see
system.mem_ctrls1.wrQLenPdf::35                    11                       # What write queue length does an incoming req see
system.mem_ctrls1.wrQLenPdf::36                     2                       # What write queue length does an incoming req see
system.mem_ctrls1.wrQLenPdf::37                     0                       # What write queue length does an incoming req see
system.mem_ctrls1.wrQLenPdf::38                     0                       # What write queue length does an incoming req see
system.mem_ctrls1.wrQLenPdf::39                     0                       # What write queue length does an incoming req see
system.mem_ctrls1.wrQLenPdf::40                     0                       # What write queue length does an incoming req see
system.mem_ctrls1.wrQLenPdf::41                     0                       # What write queue length does an incoming req see
system.mem_ctrls1.wrQLenPdf::42                     0                       # What write queue length does an incoming req see
system.mem_ctrls1.wrQLenPdf::43                     0                       # What write queue length does an incoming req see
system.mem_ctrls1.wrQLenPdf::44                     0                       # What write queue length does an incoming req see
system.mem_ctrls1.wrQLenPdf::45                     0                       # What write queue length does an incoming req see
system.mem_ctrls1.wrQLenPdf::46                     0                       # What write queue length does an incoming req see
system.mem_ctrls1.wrQLenPdf::47                     0                       # What write queue length does an incoming req see
system.mem_ctrls1.wrQLenPdf::48                     0                       # What write queue length does an incoming req see
system.mem_ctrls1.wrQLenPdf::49                     0                       # What write queue length does an incoming req see
system.mem_ctrls1.wrQLenPdf::50                     0                       # What write queue length does an incoming req see
system.mem_ctrls1.wrQLenPdf::51                     0                       # What write queue length does an incoming req see
system.mem_ctrls1.wrQLenPdf::52                     0                       # What write queue length does an incoming req see
system.mem_ctrls1.wrQLenPdf::53                     0                       # What write queue length does an incoming req see
system.mem_ctrls1.wrQLenPdf::54                     0                       # What write queue length does an incoming req see
system.mem_ctrls1.wrQLenPdf::55                     0                       # What write queue length does an incoming req see
system.mem_ctrls1.wrQLenPdf::56                     0                       # What write queue length does an incoming req see
system.mem_ctrls1.wrQLenPdf::57                     0                       # What write queue length does an incoming req see
system.mem_ctrls1.wrQLenPdf::58                     0                       # What write queue length does an incoming req see
system.mem_ctrls1.wrQLenPdf::59                     0                       # What write queue length does an incoming req see
system.mem_ctrls1.wrQLenPdf::60                     0                       # What write queue length does an incoming req see
system.mem_ctrls1.wrQLenPdf::61                     0                       # What write queue length does an incoming req see
system.mem_ctrls1.wrQLenPdf::62                     0                       # What write queue length does an incoming req see
system.mem_ctrls1.wrQLenPdf::63                     0                       # What write queue length does an incoming req see
system.mem_ctrls1.bytesPerActivate::samples      8997904                       # Bytes accessed per row activation
system.mem_ctrls1.bytesPerActivate::mean    91.948724                       # Bytes accessed per row activation
system.mem_ctrls1.bytesPerActivate::gmean    81.855024                       # Bytes accessed per row activation
system.mem_ctrls1.bytesPerActivate::stdev    57.053500                       # Bytes accessed per row activation
system.mem_ctrls1.bytesPerActivate::0-127      6539138     72.67%     72.67% # Bytes accessed per row activation
system.mem_ctrls1.bytesPerActivate::128-255      2057742     22.87%     95.54% # Bytes accessed per row activation
system.mem_ctrls1.bytesPerActivate::256-383       361595      4.02%     99.56% # Bytes accessed per row activation
system.mem_ctrls1.bytesPerActivate::384-511        29068      0.32%     99.88% # Bytes accessed per row activation
system.mem_ctrls1.bytesPerActivate::512-639         6207      0.07%     99.95% # Bytes accessed per row activation
system.mem_ctrls1.bytesPerActivate::640-767         1844      0.02%     99.97% # Bytes accessed per row activation
system.mem_ctrls1.bytesPerActivate::768-895          784      0.01%     99.98% # Bytes accessed per row activation
system.mem_ctrls1.bytesPerActivate::896-1023          432      0.00%     99.99% # Bytes accessed per row activation
system.mem_ctrls1.bytesPerActivate::1024-1151         1094      0.01%    100.00% # Bytes accessed per row activation
system.mem_ctrls1.bytesPerActivate::total      8997904                       # Bytes accessed per row activation
system.mem_ctrls1.rdPerTurnAround::samples       255589                       # Reads before turning the bus around for writes
system.mem_ctrls1.rdPerTurnAround::mean     33.428931                       # Reads before turning the bus around for writes
system.mem_ctrls1.rdPerTurnAround::stdev    55.815227                       # Reads before turning the bus around for writes
system.mem_ctrls1.rdPerTurnAround::0-1023       255588    100.00%    100.00% # Reads before turning the bus around for writes
system.mem_ctrls1.rdPerTurnAround::27648-28671            1      0.00%    100.00% # Reads before turning the bus around for writes
system.mem_ctrls1.rdPerTurnAround::total       255589                       # Reads before turning the bus around for writes
system.mem_ctrls1.wrPerTurnAround::samples       255589                       # Writes before turning the bus around for reads
system.mem_ctrls1.wrPerTurnAround::mean     17.149455                       # Writes before turning the bus around for reads
system.mem_ctrls1.wrPerTurnAround::gmean    17.115872                       # Writes before turning the bus around for reads
system.mem_ctrls1.wrPerTurnAround::stdev     1.073951                       # Writes before turning the bus around for reads
system.mem_ctrls1.wrPerTurnAround::16          113967     44.59%     44.59% # Writes before turning the bus around for reads
system.mem_ctrls1.wrPerTurnAround::17            4425      1.73%     46.32% # Writes before turning the bus around for reads
system.mem_ctrls1.wrPerTurnAround::18          123874     48.47%     94.79% # Writes before turning the bus around for reads
system.mem_ctrls1.wrPerTurnAround::19           12020      4.70%     99.49% # Writes before turning the bus around for reads
system.mem_ctrls1.wrPerTurnAround::20            1081      0.42%     99.91% # Writes before turning the bus around for reads
system.mem_ctrls1.wrPerTurnAround::21             158      0.06%     99.97% # Writes before turning the bus around for reads
system.mem_ctrls1.wrPerTurnAround::22              30      0.01%     99.99% # Writes before turning the bus around for reads
system.mem_ctrls1.wrPerTurnAround::23              21      0.01%     99.99% # Writes before turning the bus around for reads
system.mem_ctrls1.wrPerTurnAround::24               9      0.00%    100.00% # Writes before turning the bus around for reads
system.mem_ctrls1.wrPerTurnAround::25               2      0.00%    100.00% # Writes before turning the bus around for reads
system.mem_ctrls1.wrPerTurnAround::27               1      0.00%    100.00% # Writes before turning the bus around for reads
system.mem_ctrls1.wrPerTurnAround::29               1      0.00%    100.00% # Writes before turning the bus around for reads
system.mem_ctrls1.wrPerTurnAround::total       255589                       # Writes before turning the bus around for reads
system.mem_ctrls1.totQLat                229005065958                       # Total ticks spent queuing
system.mem_ctrls1.totMemAccLat           389206565958                       # Total ticks spent from burst creation until serviced by the DRAM
system.mem_ctrls1.totBusLat               42720400000                       # Total ticks spent in databus transfers
system.mem_ctrls1.avgQLat                    26802.78                       # Average queueing delay per DRAM burst
system.mem_ctrls1.avgBusLat                   5000.00                       # Average bus latency per DRAM burst
system.mem_ctrls1.avgMemAccLat               45552.78                       # Average memory access latency per DRAM burst
system.mem_ctrls1.avgRdBW                      208.34                       # Average DRAM read bandwidth in MiByte/s
system.mem_ctrls1.avgWrBW                      106.88                       # Average achieved write bandwidth in MiByte/s
system.mem_ctrls1.avgRdBWSys                   208.34                       # Average system read bandwidth in MiByte/s
system.mem_ctrls1.avgWrBWSys                   106.88                       # Average system write bandwidth in MiByte/s
system.mem_ctrls1.peakBW                     12800.00                       # Theoretical peak bandwidth in MiByte/s
system.mem_ctrls1.busUtil                        2.46                       # Data bus utilization in percentage
system.mem_ctrls1.busUtilRead                    1.63                       # Data bus utilization in percentage for reads
system.mem_ctrls1.busUtilWrite                   0.84                       # Data bus utilization in percentage for writes
system.mem_ctrls1.avgRdQLen                      1.03                       # Average read queue length when enqueuing
system.mem_ctrls1.avgWrQLen                     24.83                       # Average write queue length when enqueuing
system.mem_ctrls1.readRowHits                 3068771                       # Number of row buffer hits during reads
system.mem_ctrls1.writeRowHits                 860612                       # Number of row buffer hits during writes
system.mem_ctrls1.readRowHitRate                35.92                       # Row buffer hit rate for reads
system.mem_ctrls1.writeRowHitRate               19.63                       # Row buffer hit rate for writes
system.mem_ctrls1.avgGap                    203028.58                       # Average gap between requests
system.mem_ctrls1.pageHitRate                   30.40                       # Row buffer hit rate, read and write combined
system.mem_ctrls1_0.actEnergy             32101190100                       # Energy for activate commands per rank (pJ)
system.mem_ctrls1_0.preEnergy             17062168200                       # Energy for precharge commands per rank (pJ)
system.mem_ctrls1_0.readEnergy            30503115300                       # Energy for read commands per rank (pJ)
system.mem_ctrls1_0.writeEnergy           11443795560                       # Energy for write commands per rank (pJ)
system.mem_ctrls1_0.refreshEnergy        206617997040.000061                       # Energy for refresh commands per rank (pJ)
system.mem_ctrls1_0.actBackEnergy        194863342980                       # Energy for active background per rank (pJ)
system.mem_ctrls1_0.preBackEnergy          5368708800                       # Energy for precharge background per rank (pJ)
system.mem_ctrls1_0.actPowerDownEnergy   883264739340                       # Energy for active power-down per rank (pJ)
system.mem_ctrls1_0.prePowerDownEnergy    77916045120                       # Energy for precharge power-down per rank (pJ)
system.mem_ctrls1_0.selfRefreshEnergy     13184829630                       # Energy for self refresh per rank (pJ)
system.mem_ctrls1_0.totalEnergy          1472344430250                       # Total energy per rank (pJ)
system.mem_ctrls1_0.averagePower           560.974176                       # Core power per rank (mW)
system.mem_ctrls1_0.totalIdleTime        2183286419368                       # Total Idle time Per DRAM Rank
system.mem_ctrls1_0.memoryStateTime::IDLE   3276215777                       # Time in different power states
system.mem_ctrls1_0.memoryStateTime::REF  87434026000                       # Time in different power states
system.mem_ctrls1_0.memoryStateTime::SREF  43376107669                       # Time in different power states
system.mem_ctrls1_0.memoryStateTime::PRE_PDN 202909408385                       # Time in different power states
system.mem_ctrls1_0.memoryStateTime::ACT 350623984408                       # Time in different power states
system.mem_ctrls1_0.memoryStateTime::ACT_PDN 1937000946824                       # Time in different power states
system.mem_ctrls1_1.actEnergy             32143880160                       # Energy for activate commands per rank (pJ)
system.mem_ctrls1_1.preEnergy             17084877480                       # Energy for precharge commands per rank (pJ)
system.mem_ctrls1_1.readEnergy            30501615900                       # Energy for read commands per rank (pJ)
system.mem_ctrls1_1.writeEnergy           11436571080                       # Energy for write commands per rank (pJ)
system.mem_ctrls1_1.refreshEnergy        206310677040.000061                       # Energy for refresh commands per rank (pJ)
system.mem_ctrls1_1.actBackEnergy        193437781530                       # Energy for active background per rank (pJ)
system.mem_ctrls1_1.preBackEnergy          5349975840                       # Energy for precharge background per rank (pJ)
system.mem_ctrls1_1.actPowerDownEnergy   884784439710                       # Energy for active power-down per rank (pJ)
system.mem_ctrls1_1.prePowerDownEnergy    77146724640                       # Energy for precharge power-down per rank (pJ)
system.mem_ctrls1_1.selfRefreshEnergy     13471651230                       # Energy for self refresh per rank (pJ)
system.mem_ctrls1_1.totalEnergy          1471687003050                       # Total energy per rank (pJ)
system.mem_ctrls1_1.averagePower           560.723689                       # Core power per rank (mW)
system.mem_ctrls1_1.totalIdleTime        2186450725448                       # Total Idle time Per DRAM Rank
system.mem_ctrls1_1.memoryStateTime::IDLE   3204446169                       # Time in different power states
system.mem_ctrls1_1.memoryStateTime::REF  87302226000                       # Time in different power states
system.mem_ctrls1_1.memoryStateTime::SREF  45221218807                       # Time in different power states
system.mem_ctrls1_1.memoryStateTime::PRE_PDN 200901141237                       # Time in different power states
system.mem_ctrls1_1.memoryStateTime::ACT 347663128940                       # Time in different power states
system.mem_ctrls1_1.memoryStateTime::ACT_PDN 1940328527910                       # Time in different power states
system.pwrStateResidencyTicks::UNDEFINED 146101609006137                       # Cumulative time (in ticks) in various power states
system.cpu.branchPred.lookups                       0                       # Number of BP lookups
system.cpu.branchPred.condPredicted                 0                       # Number of conditional branches predicted
system.cpu.branchPred.condIncorrect                 0                       # Number of conditional branches incorrect
system.cpu.branchPred.BTBLookups                    0                       # Number of BTB lookups
system.cpu.branchPred.BTBHits                       0                       # Number of BTB hits
system.cpu.branchPred.BTBCorrect                    0                       # Number of correct BTB predictions (this stat may not work properly.
system.cpu.branchPred.BTBHitPct                   nan                       # BTB Hit Percentage
system.cpu.branchPred.usedRAS                       0                       # Number of times the RAS was used to get a target.
system.cpu.branchPred.RASInCorrect                  0                       # Number of incorrect RAS predictions.
system.cpu.branchPred.indirectLookups               0                       # Number of indirect predictor lookups.
system.cpu.branchPred.indirectHits                  0                       # Number of indirect target hits.
system.cpu.branchPred.indirectMisses                0                       # Number of indirect misses.
system.cpu.branchPredindirectMispredicted            0                       # Number of mispredicted indirect branches.
system.cpu_voltage_domain.voltage                   1                       # Voltage in Volts
system.cpu_clk_domain.clock                       333                       # Clock period in ticks
system.cpu.dtb.fetch_hits                           0                       # ITB hits
system.cpu.dtb.fetch_misses                         0                       # ITB misses
system.cpu.dtb.fetch_acv                            0                       # ITB acv
system.cpu.dtb.fetch_accesses                       0                       # ITB accesses
system.cpu.dtb.read_hits                           13                       # DTB read hits
system.cpu.dtb.read_misses                          0                       # DTB read misses
system.cpu.dtb.read_acv                             0                       # DTB read access violations
system.cpu.dtb.read_accesses                       13                       # DTB read accesses
system.cpu.dtb.write_hits                           0                       # DTB write hits
system.cpu.dtb.write_misses                         0                       # DTB write misses
system.cpu.dtb.write_acv                            0                       # DTB write access violations
system.cpu.dtb.write_accesses                       0                       # DTB write accesses
system.cpu.dtb.data_hits                           13                       # DTB hits
system.cpu.dtb.data_misses                          0                       # DTB misses
system.cpu.dtb.data_acv                             0                       # DTB access violations
system.cpu.dtb.data_accesses                       13                       # DTB accesses
system.cpu.itb.fetch_hits                           4                       # ITB hits
system.cpu.itb.fetch_misses                         0                       # ITB misses
system.cpu.itb.fetch_acv                            0                       # ITB acv
system.cpu.itb.fetch_accesses                       4                       # ITB accesses
system.cpu.itb.read_hits                            0                       # DTB read hits
system.cpu.itb.read_misses                          0                       # DTB read misses
system.cpu.itb.read_acv                             0                       # DTB read access violations
system.cpu.itb.read_accesses                        0                       # DTB read accesses
system.cpu.itb.write_hits                           0                       # DTB write hits
system.cpu.itb.write_misses                         0                       # DTB write misses
system.cpu.itb.write_acv                            0                       # DTB write access violations
system.cpu.itb.write_accesses                       0                       # DTB write accesses
system.cpu.itb.data_hits                            0                       # DTB hits
system.cpu.itb.data_misses                          0                       # DTB misses
system.cpu.itb.data_acv                             0                       # DTB access violations
system.cpu.itb.data_accesses                        0                       # DTB accesses
system.cpu.workload.num_syscalls                    0                       # Number of system calls
system.cpu.pwrStateResidencyTicks::ON    2624620689063                       # Cumulative time (in ticks) in various power states
system.cpu.numCycles                              582                       # number of cpu cycles simulated
system.cpu.numWorkItemsStarted                      0                       # number of work items this cpu started
system.cpu.numWorkItemsCompleted                    0                       # number of work items this cpu completed
system.cpu.fetch.icacheStallCycles                 49                       # Number of cycles fetch is stalled on an Icache miss
system.cpu.fetch.Insts                             23                       # Number of instructions fetch has processed
system.cpu.fetch.Cycles                             3                       # Number of cycles fetch has run and was not squashing or blocked
system.cpu.fetch.SquashCycles                       3                       # Number of cycles fetch has spent squashing
system.cpu.fetch.PendingDrainCycles                 7                       # Number of cycles fetch has spent waiting on pipes to drain
system.cpu.fetch.CacheLines                         4                       # Number of cache lines fetched
system.cpu.fetch.IcacheSquashes                     2                       # Number of outstanding Icache misses that were squashed
system.cpu.fetch.rateDist::samples                 60                       # Number of instructions fetched each cycle (Total)
system.cpu.fetch.rateDist::mean              0.383333                       # Number of instructions fetched each cycle (Total)
system.cpu.fetch.rateDist::stdev             1.688362                       # Number of instructions fetched each cycle (Total)
[...]
system.switch_cpus_1.iq.fu_busy_rate         0.055167                       # FU busy rate (busy events/executed inst)
system.switch_cpus_1.iq.int_inst_queue_reads    601011765                       # Number of integer instruction queue reads
system.switch_cpus_1.iq.int_inst_queue_writes     79841853                       # Number of integer instruction queue writes
system.switch_cpus_1.iq.int_inst_queue_wakeup_accesses     72911894                       # Number of integer instruction queue wakeup accesses
system.switch_cpus_1.iq.fp_inst_queue_reads    313159208                       # Number of floating instruction queue reads
system.switch_cpus_1.iq.fp_inst_queue_writes    167481016                       # Number of floating instruction queue writes
system.switch_cpus_1.iq.fp_inst_queue_wakeup_accesses    142523640                       # Number of floating instruction queue wakeup accesses
system.switch_cpus_1.iq.int_alu_accesses     81273408                       # Number of integer alu accesses
system.switch_cpus_1.iq.fp_alu_accesses     160097795                       # Number of floating point alu accesses
system.switch_cpus_1.iew.lsq.thread0.forwLoads       563103                       # Number of loads that had data forwarded from stores
system.switch_cpus_1.iew.lsq.thread0.invAddrLoads            0                       # Number of loads ignored due to an invalid address
system.switch_cpus_1.iew.lsq.thread0.squashedLoads      9698880                       # Number of loads squashed
system.switch_cpus_1.iew.lsq.thread0.ignoredResponses           37                       # Number of memory responses ignored because the instruction is squashed
system.switch_cpus_1.iew.lsq.thread0.memOrderViolation          514                       # Number of memory ordering violations
system.switch_cpus_1.iew.lsq.thread0.squashedStores      1086725                       # Number of stores squashed
system.switch_cpus_1.iew.lsq.thread0.invAddrSwpfs            0                       # Number of software prefetches ignored due to an invalid address
system.switch_cpus_1.iew.lsq.thread0.blockedLoads            0                       # Number of blocked loads due to partial load-store forwarding
system.switch_cpus_1.iew.lsq.thread0.rescheduledLoads            0                       # Number of loads that were rescheduled
system.switch_cpus_1.iew.lsq.thread0.cacheBlocked     11924055                       # Number of times an access to memory failed due to the cache being blocked
system.switch_cpus_1.iew.iewIdleCycles              0                       # Number of cycles IEW is idle
system.switch_cpus_1.iew.iewSquashCycles       306914                       # Number of cycles IEW is squashing
system.switch_cpus_1.iew.iewBlockCycles      10215607                       # Number of cycles IEW is blocking
system.switch_cpus_1.iew.iewUnblockCycles    130094756                       # Number of cycles IEW is unblocking
system.switch_cpus_1.iew.iewDispatchedInsts    223847261                       # Number of instructions dispatched to IQ
system.switch_cpus_1.iew.iewDispSquashedInsts         1663                       # Number of squashed instructions skipped by dispatch
system.switch_cpus_1.iew.iewDispLoadInsts     93114488                       # Number of dispatched load instructions
system.switch_cpus_1.iew.iewDispStoreInsts     11679172                       # Number of dispatched store instructions
system.switch_cpus_1.iew.iewDispNonSpecInsts            0                       # Number of dispatched non-speculative instructions
system.switch_cpus_1.iew.iewIQFullEvents        35891                       # Number of times the IQ has become full, causing a stall
system.switch_cpus_1.iew.iewLSQFullEvents    130037155                       # Number of times the LSQ has become full, causing a stall
system.switch_cpus_1.iew.memOrderViolationEvents          514                       # Number of memory order violations
system.switch_cpus_1.iew.predictedTakenIncorrect         3860                       # Number of branches that were predicted taken incorrectly
system.switch_cpus_1.iew.predictedNotTakenIncorrect          462                       # Number of branches that were predicted not taken incorrectly
system.switch_cpus_1.iew.branchMispredicts         4322                       # Number of branch mispredicts detected at execute
system.switch_cpus_1.iew.iewExecutedInsts    228670981                       # Number of executed instructions
system.switch_cpus_1.iew.iewExecLoadInsts    104270592                       # Number of load instructions executed
system.switch_cpus_1.iew.iewExecSquashedInsts        80772                       # Number of squashed instructions skipped in execute
system.switch_cpus_1.iew.exec_swp                   0                       # number of swp insts executed
system.switch_cpus_1.iew.exec_nop              186050                       # number of nop insts executed
system.switch_cpus_1.iew.exec_refs          114989675                       # number of memory reference insts executed
system.switch_cpus_1.iew.exec_branches        1994193                       # Number of branches executed
system.switch_cpus_1.iew.exec_stores         10719083                       # Number of stores executed
system.switch_cpus_1.iew.exec_rate           0.515318                       # Inst execution rate
system.switch_cpus_1.iew.wb_sent            216509152                       # cumulative count of insts sent to commit
system.switch_cpus_1.iew.wb_count           215435534                       # cumulative count of insts written-back
system.switch_cpus_1.iew.wb_producers       143038119                       # num instructions producing a value
system.switch_cpus_1.iew.wb_consumers       149918854                       # num instructions consuming a value
system.switch_cpus_1.iew.wb_rate             0.485492                       # insts written-back per cycle
system.switch_cpus_1.iew.wb_fanout           0.954104                       # average fanout of values written-back
system.switch_cpus_1.commit.commitSquashedInsts     22568489                       # The number of squashed insts skipped by commit
system.switch_cpus_1.commit.branchMispredicts         4272                       # The number of times a branch was mispredicted
system.switch_cpus_1.commit.committed_per_cycle::samples    440746052                       # Number of insts commited each cycle
system.switch_cpus_1.commit.committed_per_cycle::mean     0.454197                       # Number of insts commited each cycle
system.switch_cpus_1.commit.committed_per_cycle::stdev     1.680456                       # Number of insts commited each cycle
system.switch_cpus_1.commit.committed_per_cycle::underflows            0      0.00%      0.00% # Number of insts commited each cycle
system.switch_cpus_1.commit.committed_per_cycle::0    397610464     90.21%     90.21% # Number of insts commited each cycle
system.switch_cpus_1.commit.committed_per_cycle::1     12527976      2.84%     93.06% # Number of insts commited each cycle
system.switch_cpus_1.commit.committed_per_cycle::2      4297333      0.98%     94.03% # Number of insts commited each cycle
system.switch_cpus_1.commit.committed_per_cycle::3      2661368      0.60%     94.63% # Number of insts commited each cycle
system.switch_cpus_1.commit.committed_per_cycle::4      2257895      0.51%     95.15% # Number of insts commited each cycle
system.switch_cpus_1.commit.committed_per_cycle::5      1603604      0.36%     95.51% # Number of insts commited each cycle
system.switch_cpus_1.commit.committed_per_cycle::6      1666395      0.38%     95.89% # Number of insts commited each cycle
system.switch_cpus_1.commit.committed_per_cycle::7       937337      0.21%     96.10% # Number of insts commited each cycle
system.switch_cpus_1.commit.committed_per_cycle::8     17183680      3.90%    100.00% # Number of insts commited each cycle
system.switch_cpus_1.commit.committed_per_cycle::overflows            0      0.00%    100.00% # Number of insts commited each cycle
system.switch_cpus_1.commit.committed_per_cycle::min_value            0                       # Number of insts commited each cycle
system.switch_cpus_1.commit.committed_per_cycle::max_value            8                       # Number of insts commited each cycle
system.switch_cpus_1.commit.committed_per_cycle::total    440746052                       # Number of insts commited each cycle
system.switch_cpus_1.commit.committedInsts    200185515                       # Number of instructions committed
system.switch_cpus_1.commit.committedOps    200185515                       # Number of ops (including micro ops) committed
system.switch_cpus_1.commit.swp_count               0                       # Number of s/w prefetches committed
system.switch_cpus_1.commit.refs             94008030                       # Number of memory references committed
system.switch_cpus_1.commit.loads            83415586                       # Number of loads committed
system.switch_cpus_1.commit.membars                 0                       # Number of memory barriers committed
system.switch_cpus_1.commit.branches          1780705                       # Number of branches committed
system.switch_cpus_1.commit.fp_insts        133556284                       # Number of committed floating point instructions.
system.switch_cpus_1.commit.int_insts       133992906                       # Number of committed integer instructions.
system.switch_cpus_1.commit.function_calls            0                       # Number of function calls committed.
system.switch_cpus_1.commit.op_class_0::No_OpClass       185513      0.09%      0.09% # Class of committed instruction
system.switch_cpus_1.commit.op_class_0::IntAlu     39964775     19.96%     20.06% # Class of committed instruction
system.switch_cpus_1.commit.op_class_0::IntMult        96303      0.05%     20.10% # Class of committed instruction
system.switch_cpus_1.commit.op_class_0::IntDiv            0      0.00%     20.10% # Class of committed instruction
system.switch_cpus_1.commit.op_class_0::FloatAdd     26372358     13.17%     33.28% # Class of committed instruction
system.switch_cpus_1.commit.op_class_0::FloatCmp            0      0.00%     33.28% # Class of committed instruction
system.switch_cpus_1.commit.op_class_0::FloatCvt            0      0.00%     33.28% # Class of committed instruction
system.switch_cpus_1.commit.op_class_0::FloatMult     39558536     19.76%     53.04% # Class of committed instruction
system.switch_cpus_1.commit.op_class_0::FloatMultAcc            0      0.00%     53.04% # Class of committed instruction
system.switch_cpus_1.commit.op_class_0::FloatDiv            0      0.00%     53.04% # Class of committed instruction
system.switch_cpus_1.commit.op_class_0::FloatMisc            0      0.00%     53.04% # Class of committed instruction
system.switch_cpus_1.commit.op_class_0::FloatSqrt            0      0.00%     53.04% # Class of committed instruction
system.switch_cpus_1.commit.op_class_0::SimdAdd            0      0.00%     53.04% # Class of committed instruction
system.switch_cpus_1.commit.op_class_0::SimdAddAcc            0      0.00%     53.04% # Class of committed instruction
system.switch_cpus_1.commit.op_class_0::SimdAlu            0      0.00%     53.04% # Class of committed instruction
system.switch_cpus_1.commit.op_class_0::SimdCmp            0      0.00%     53.04% # Class of committed instruction
system.switch_cpus_1.commit.op_class_0::SimdCvt            0      0.00%     53.04% # Class of committed instruction
system.switch_cpus_1.commit.op_class_0::SimdMisc            0      0.00%     53.04% # Class of committed instruction
system.switch_cpus_1.commit.op_class_0::SimdMult            0      0.00%     53.04% # Class of committed instruction
system.switch_cpus_1.commit.op_class_0::SimdMultAcc            0      0.00%     53.04% # Class of committed instruction
system.switch_cpus_1.commit.op_class_0::SimdShift            0      0.00%     53.04% # Class of committed instruction
system.switch_cpus_1.commit.op_class_0::SimdShiftAcc            0      0.00%     53.04% # Class of committed instruction
system.switch_cpus_1.commit.op_class_0::SimdSqrt            0      0.00%     53.04% # Class of committed instruction
system.switch_cpus_1.commit.op_class_0::SimdFloatAdd            0      0.00%     53.04% # Class of committed instruction
system.switch_cpus_1.commit.op_class_0::SimdFloatAlu            0      0.00%     53.04% # Class of committed instruction
system.switch_cpus_1.commit.op_class_0::SimdFloatCmp            0      0.00%     53.04% # Class of committed instruction
system.switch_cpus_1.commit.op_class_0::SimdFloatCvt            0      0.00%     53.04% # Class of committed instruction
system.switch_cpus_1.commit.op_class_0::SimdFloatDiv            0      0.00%     53.04% # Class of committed instruction
system.switch_cpus_1.commit.op_class_0::SimdFloatMisc            0      0.00%     53.04% # Class of committed instruction
system.switch_cpus_1.commit.op_class_0::SimdFloatMult            0      0.00%     53.04% # Class of committed instruction
system.switch_cpus_1.commit.op_class_0::SimdFloatMultAcc            0      0.00%     53.04% # Class of committed instruction
system.switch_cpus_1.commit.op_class_0::SimdFloatSqrt            0      0.00%     53.04% # Class of committed instruction
system.switch_cpus_1.commit.op_class_0::MemRead     24580982     12.28%     65.32% # Class of committed instruction
system.switch_cpus_1.commit.op_class_0::MemWrite      1801658      0.90%     66.22% # Class of committed instruction
system.switch_cpus_1.commit.op_class_0::FloatMemRead     58834604     29.39%     95.61% # Class of committed instruction
system.switch_cpus_1.commit.op_class_0::FloatMemWrite      8790786      4.39%    100.00% # Class of committed instruction
system.switch_cpus_1.commit.op_class_0::IprAccess            0      0.00%    100.00% # Class of committed instruction
system.switch_cpus_1.commit.op_class_0::InstPrefetch            0      0.00%    100.00% # Class of committed instruction
system.switch_cpus_1.commit.op_class_0::total    200185515                       # Class of committed instruction
system.switch_cpus_1.commit.bw_lim_events     17183680                       # number cycles where commit BW limit reached
system.switch_cpus_1.rob.rob_reads          642387503                       # The number of ROB reads
system.switch_cpus_1.rob.rob_writes         448466168                       # The number of ROB writes
system.switch_cpus_1.timesIdled                   363                       # Number of times that the entire CPU went into an idle state and unscheduled itself
system.switch_cpus_1.idleCycles                 42919                       # Total number of cycles that the CPU has spent unscheduled due to idling
system.switch_cpus_1.committedInsts         200000002                       # Number of Instructions Simulated
system.switch_cpus_1.committedOps           200000002                       # Number of Ops (including micro ops) Simulated
system.switch_cpus_1.cpi                     2.218735                       # CPI: Cycles Per Instruction
system.switch_cpus_1.cpi_total               2.218735                       # CPI: Total CPI of All Threads
system.switch_cpus_1.ipc                     0.450707                       # IPC: Instructions Per Cycle
system.switch_cpus_1.ipc_total               0.450707                       # IPC: Total IPC of All Threads
system.switch_cpus_1.int_regfile_reads      181559686                       # number of integer regfile reads
system.switch_cpus_1.int_regfile_writes      69113912                       # number of integer regfile writes
system.switch_cpus_1.fp_regfile_reads       147032997                       # number of floating regfile reads
system.switch_cpus_1.fp_regfile_writes      133620931                       # number of floating regfile writes
system.tol3bus.snoop_filter.tot_requests     39183879                       # Total number of requests made to the snoop filter.
system.tol3bus.snoop_filter.hit_single_requests     19589610                       # Number of requests hitting in the snoop filter with a single holder of the requested data.
system.tol3bus.snoop_filter.hit_multi_requests            0                       # Number of requests hitting in the snoop filter with multiple (>1) holders of the requested data.
system.tol3bus.snoop_filter.tot_snoops         741141                       # Total number of snoops made to the snoop filter.
system.tol3bus.snoop_filter.hit_single_snoops       741141                       # Number of snoops hitting in the snoop filter with a single holder of the requested data.
system.tol3bus.snoop_filter.hit_multi_snoops            0                       # Number of snoops hitting in the snoop filter with multiple (>1) holders of the requested data.
system.tol3bus.pwrStateResidencyTicks::UNDEFINED 146101609006137                       # Cumulative time (in ticks) in various power states
system.tol3bus.trans_dist::ReadResp          19456420                       # Transaction distribution
system.tol3bus.trans_dist::WritebackDirty     17801721                       # Transaction distribution
system.tol3bus.trans_dist::CleanEvict        19230544                       # Transaction distribution
system.tol3bus.trans_dist::UpgradeReq               5                       # Transaction distribution
system.tol3bus.trans_dist::UpgradeResp              5                       # Transaction distribution
system.tol3bus.trans_dist::ReadExReq           137849                       # Transaction distribution
system.tol3bus.trans_dist::ReadExResp          137849                       # Transaction distribution
system.tol3bus.trans_dist::ReadSharedReq     19456420                       # Transaction distribution
system.tol3bus.pkt_count_system.cpu.l2.mem_side::system.l3.cpu_side     58778153                       # Packet count per connected master and slave (bytes)
system.tol3bus.pkt_size_system.cpu.l2.mem_side::system.l3.cpu_side   1832277888                       # Cumulative packet size per connected master and slave (bytes)
system.tol3bus.snoops                        17442660                       # Total snoops (count)
system.tol3bus.snoopTraffic                 561065472                       # Total snoop traffic (bytes)
system.tol3bus.snoop_fanout::samples         37036934                       # Request fanout histogram
system.tol3bus.snoop_fanout::mean            0.020011                       # Request fanout histogram
system.tol3bus.snoop_fanout::stdev           0.140037                       # Request fanout histogram
system.tol3bus.snoop_fanout::underflows             0      0.00%      0.00% # Request fanout histogram
system.tol3bus.snoop_fanout::0               36295793     98.00%     98.00% # Request fanout histogram
system.tol3bus.snoop_fanout::1                 741141      2.00%    100.00% # Request fanout histogram
system.tol3bus.snoop_fanout::overflows              0      0.00%    100.00% # Request fanout histogram
system.tol3bus.snoop_fanout::min_value              0                       # Request fanout histogram
system.tol3bus.snoop_fanout::max_value              1                       # Request fanout histogram
system.tol3bus.snoop_fanout::total           37036934                       # Request fanout histogram
system.tol3bus.reqLayer0.occupancy        16056911016                       # Layer occupancy (ticks)
system.tol3bus.reqLayer0.utilization              0.6                       # Layer utilization (%)
system.tol3bus.respLayer0.occupancy       13049784819                       # Layer occupancy (ticks)
system.tol3bus.respLayer0.utilization             0.5                       # Layer utilization (%)

---------- End Simulation Statistics   ----------
