
---------- Begin Simulation Statistics ----------
sim_seconds                                  1.717966                       # Number of seconds simulated
sim_ticks                                1717965990324                       # Number of ticks simulated
final_tick                               35021343914685                       # Number of ticks from beginning of simulation (restored from checkpoints and never reset)
sim_freq                                 1000000000000                       # Frequency of simulated ticks
host_inst_rate                                 545328                       # Simulator instruction rate (inst/s)
host_op_rate                                   545328                       # Simulator op (including micro ops) rate (op/s)
host_tick_rate                              780712858                       # Simulator tick rate (ticks/s)
host_mem_usage                                2568124                       # Number of bytes of host memory used
host_seconds                                  2200.51                       # Real time elapsed on the host
sim_insts                                  1200000009                       # Number of instructions simulated
sim_ops                                    1200000009                       # Number of ops (including micro ops) simulated
system.voltage_domain.voltage                       1                       # Voltage in Volts
system.clk_domain.clock                          1000                       # Clock period in ticks
system.mem_ctrls0.pwrStateResidencyTicks::UNDEFINED 35021343914685                       # Cumulative time (in ticks) in various power states
system.mem_ctrls0.bytes_read::cpu.inst            128                       # Number of bytes read from this memory
system.mem_ctrls0.bytes_read::cpu.data            192                       # Number of bytes read from this memory
system.mem_ctrls0.bytes_read::switch_cpus.inst         8064                       # Number of bytes read from this memory
system.mem_ctrls0.bytes_read::switch_cpus.data     86130240                       # Number of bytes read from this memory
system.mem_ctrls0.bytes_read::switch_cpus_1.inst           64                       # Number of bytes read from this memory
system.mem_ctrls0.bytes_read::switch_cpus_1.data     17644864                       # Number of bytes read from this memory
system.mem_ctrls0.bytes_read::total         103783552                       # Number of bytes read from this memory
system.mem_ctrls0.bytes_inst_read::cpu.inst          128                       # Number of instructions bytes read from this memory
system.mem_ctrls0.bytes_inst_read::switch_cpus.inst         8064                       # Number of instructions bytes read from this memory
system.mem_ctrls0.bytes_inst_read::switch_cpus_1.inst           64                       # Number of instructions bytes read from this memory
system.mem_ctrls0.bytes_inst_read::total         8256                       # Number of instructions bytes read from this memory
system.mem_ctrls0.bytes_written::writebacks     34978432                       # Number of bytes written to this memory
system.mem_ctrls0.bytes_written::total       34978432                       # Number of bytes written to this memory
system.mem_ctrls0.num_reads::cpu.inst               2                       # Number of read requests responded to by this memory
system.mem_ctrls0.num_reads::cpu.data               3                       # Number of read requests responded to by this memory
system.mem_ctrls0.num_reads::switch_cpus.inst          126                       # Number of read requests responded to by this memory
system.mem_ctrls0.num_reads::switch_cpus.data      1345785                       # Number of read requests responded to by this memory
system.mem_ctrls0.num_reads::switch_cpus_1.inst            1                       # Number of read requests responded to by this memory
system.mem_ctrls0.num_reads::switch_cpus_1.data       275701                       # Number of read requests responded to by this memory
system.mem_ctrls0.num_reads::total            1621618                       # Number of read requests responded to by this memory
system.mem_ctrls0.num_writes::writebacks       546538                       # Number of write requests responded to by this memory
system.mem_ctrls0.num_writes::total            546538                       # Number of write requests responded to by this memory
system.mem_ctrls0.bw_read::cpu.inst                75                       # Total read bandwidth from this memory (bytes/s)
system.mem_ctrls0.bw_read::cpu.data               112                       # Total read bandwidth from this memory (bytes/s)
system.mem_ctrls0.bw_read::switch_cpus.inst         4694                       # Total read bandwidth from this memory (bytes/s)
system.mem_ctrls0.bw_read::switch_cpus.data     50135009                       # Total read bandwidth from this memory (bytes/s)
system.mem_ctrls0.bw_read::switch_cpus_1.inst           37                       # Total read bandwidth from this memory (bytes/s)
system.mem_ctrls0.bw_read::switch_cpus_1.data     10270788                       # Total read bandwidth from this memory (bytes/s)
system.mem_ctrls0.bw_read::total             60410714                       # Total read bandwidth from this memory (bytes/s)
system.mem_ctrls0.bw_inst_read::cpu.inst           75                       # Instruction read bandwidth from this memory (bytes/s)
system.mem_ctrls0.bw_inst_read::switch_cpus.inst         4694                       # Instruction read bandwidth from this memory (bytes/s)
system.mem_ctrls0.bw_inst_read::switch_cpus_1.inst           37                       # Instruction read bandwidth from this memory (bytes/s)
system.mem_ctrls0.bw_inst_read::total            4806                       # Instruction read bandwidth from this memory (bytes/s)
system.mem_ctrls0.bw_write::writebacks       20360375                       # Write bandwidth from this memory (bytes/s)
system.mem_ctrls0.bw_write::total            20360375                       # Write bandwidth from this memory (bytes/s)
system.mem_ctrls0.bw_total::writebacks       20360375                       # Total bandwidth to/from this memory (bytes/s)
system.mem_ctrls0.bw_total::cpu.inst               75                       # Total bandwidth to/from this memory (bytes/s)
system.mem_ctrls0.bw_total::cpu.data              112                       # Total bandwidth to/from this memory (bytes/s)
system.mem_ctrls0.bw_total::switch_cpus.inst         4694                       # Total bandwidth to/from this memory (bytes/s)
system.mem_ctrls0.bw_total::switch_cpus.data     50135009                       # Total bandwidth to/from this memory (bytes/s)
system.mem_ctrls0.bw_total::switch_cpus_1.inst           37                       # Total bandwidth to/from this memory (bytes/s)
system.mem_ctrls0.bw_total::switch_cpus_1.data     10270788                       # Total bandwidth to/from this memory (bytes/s)
system.mem_ctrls0.bw_total::total            80771089                       # Total bandwidth to/from this memory (bytes/s)
system.mem_ctrls0.readReqs                    1621618                       # Number of read requests accepted
system.mem_ctrls0.writeReqs                    546538                       # Number of write requests accepted
system.mem_ctrls0.readBursts                  1621618                       # Number of DRAM read bursts, including those serviced by the write queue
system.mem_ctrls0.writeBursts                  546538                       # Number of DRAM write bursts, including those merged in the write queue
system.mem_ctrls0.bytesReadDRAM             103764544                       # Total number of bytes read from DRAM
system.mem_ctrls0.bytesReadWrQ                  19008                       # Total number of bytes read from write queue
system.mem_ctrls0.bytesWritten               34977216                       # Total number of bytes written to DRAM
system.mem_ctrls0.bytesReadSys              103783552                       # Total read bytes from the system interface side
system.mem_ctrls0.bytesWrittenSys            34978432                       # Total written bytes from the system interface side
system.mem_ctrls0.servicedByWrQ                   297                       # Number of DRAM read bursts serviced by the write queue
system.mem_ctrls0.mergedWrBursts                    0                       # Number of DRAM write bursts merged with an existing one
system.mem_ctrls0.neitherReadNorWriteReqs            0                       # Number of requests that are neither read nor write
system.mem_ctrls0.perBankRdBursts::0           105628                       # Per bank write bursts
system.mem_ctrls0.perBankRdBursts::1           103210                       # Per bank write bursts
system.mem_ctrls0.perBankRdBursts::2           103948                       # Per bank write bursts
system.mem_ctrls0.perBankRdBursts::3           101010                       # Per bank write bursts
system.mem_ctrls0.perBankRdBursts::4           101931                       # Per bank write bursts
system.mem_ctrls0.perBankRdBursts::5           101645                       # Per bank write bursts
system.mem_ctrls0.perBankRdBursts::6           100967                       # Per bank write bursts
system.mem_ctrls0.perBankRdBursts::7           101785                       # Per bank write bursts
system.mem_ctrls0.perBankRdBursts::8           100650                       # Per bank write bursts
system.mem_ctrls0.perBankRdBursts::9            99217                       # Per bank write bursts
system.mem_ctrls0.perBankRdBursts::10           99670                       # Per bank write bursts
system.mem_ctrls0.perBankRdBursts::11           99610                       # Per bank write bursts
system.mem_ctrls0.perBankRdBursts::12           98745                       # Per bank write bursts
system.mem_ctrls0.perBankRdBursts::13           98750                       # Per bank write bursts
system.mem_ctrls0.perBankRdBursts::14          100840                       # Per bank write bursts
system.mem_ctrls0.perBankRdBursts::15          103715                       # Per bank write bursts
system.mem_ctrls0.perBankWrBursts::0            36446                       # Per bank write bursts
system.mem_ctrls0.perBankWrBursts::1            35301                       # Per bank write bursts
system.mem_ctrls0.perBankWrBursts::2            34790                       # Per bank write bursts
system.mem_ctrls0.perBankWrBursts::3            33627                       # Per bank write bursts
system.mem_ctrls0.perBankWrBursts::4            33696                       # Per bank write bursts
system.mem_ctrls0.perBankWrBursts::5            33563                       # Per bank write bursts
system.mem_ctrls0.perBankWrBursts::6            33516                       # Per bank write bursts
system.mem_ctrls0.perBankWrBursts::7            33981                       # Per bank write bursts
system.mem_ctrls0.perBankWrBursts::8            33538                       # Per bank write bursts
system.mem_ctrls0.perBankWrBursts::9            33356                       # Per bank write bursts
system.mem_ctrls0.perBankWrBursts::10           33842                       # Per bank write bursts
system.mem_ctrls0.perBankWrBursts::11           33746                       # Per bank write bursts
system.mem_ctrls0.perBankWrBursts::12           33556                       # Per bank write bursts
system.mem_ctrls0.perBankWrBursts::13           33601                       # Per bank write bursts
system.mem_ctrls0.perBankWrBursts::14           34393                       # Per bank write bursts
system.mem_ctrls0.perBankWrBursts::15           35567                       # Per bank write bursts
system.mem_ctrls0.numRdRetry                        0                       # Number of times read queue was full causing retry
system.mem_ctrls0.numWrRetry                        0                       # Number of times write queue was full causing retry
system.mem_ctrls0.totGap                 1717965161487                       # Total gap between requests
system.mem_ctrls0.readPktSize::0                    0                       # Read request sizes (log2)
system.mem_ctrls0.readPktSize::1                    0                       # Read request sizes (log2)
system.mem_ctrls0.readPktSize::2                    0                       # Read request sizes (log2)
system.mem_ctrls0.readPktSize::3                    0                       # Read request sizes (log2)
system.mem_ctrls0.readPktSize::4                    0                       # Read request sizes (log2)
system.mem_ctrls0.readPktSize::5                    0                       # Read request sizes (log2)
system.mem_ctrls0.readPktSize::6              1621618                       # Read request sizes (log2)
system.mem_ctrls0.writePktSize::0                   0                       # Write request sizes (log2)
system.mem_ctrls0.writePktSize::1                   0                       # Write request sizes (log2)
system.mem_ctrls0.writePktSize::2                   0                       # Write request sizes (log2)
system.mem_ctrls0.writePktSize::3                   0                       # Write request sizes (log2)
system.mem_ctrls0.writePktSize::4                   0                       # Write request sizes (log2)
system.mem_ctrls0.writePktSize::5                   0                       # Write request sizes (log2)
system.mem_ctrls0.writePktSize::6              546538                       # Write request sizes (log2)
system.mem_ctrls0.rdQLenPdf::0                1535425                       # What read queue length does an incoming req see
system.mem_ctrls0.rdQLenPdf::1                  76858                       # What read queue length does an incoming req see
system.mem_ctrls0.rdQLenPdf::2                   8590                       # What read queue length does an incoming req see
system.mem_ctrls0.rdQLenPdf::3                    448                       # What read queue length does an incoming req see
system.mem_ctrls0.rdQLenPdf::4                      0                       # What read queue length does an incoming req see
system.mem_ctrls0.rdQLenPdf::5                      0                       # What read queue length does an incoming req see
system.mem_ctrls0.rdQLenPdf::6                      0                       # What read queue length does an incoming req see
system.mem_ctrls0.rdQLenPdf::7                      0                       # What read queue length does an incoming req see
system.mem_ctrls0.rdQLenPdf::8                      0                       # What read queue length does an incoming req see
system.mem_ctrls0.rdQLenPdf::9                      0                       # What read queue length does an incoming req see
system.mem_ctrls0.rdQLenPdf::10                     0                       # What read queue length does an incoming req see
system.mem_ctrls0.rdQLenPdf::11                     0                       # What read queue length does an incoming req see
system.mem_ctrls0.rdQLenPdf::12                     0                       # What read queue length does an incoming req see
system.mem_ctrls0.rdQLenPdf::13                     0                       # What read queue length does an incoming req see
system.mem_ctrls0.rdQLenPdf::14                     0                       # What read queue length does an incoming req see
system.mem_ctrls0.rdQLenPdf::15                     0                       # What read queue length does an incoming req see
system.mem_ctrls0.rdQLenPdf::16                     0                       # What read queue length does an incoming req see
system.mem_ctrls0.rdQLenPdf::17                     0                       # What read queue length does an incoming req see
system.mem_ctrls0.rdQLenPdf::18                     0                       # What read queue length does an incoming req see
system.mem_ctrls0.rdQLenPdf::19                     0                       # What read queue length does an incoming req see
system.mem_ctrls0.rdQLenPdf::20                     0                       # What read queue length does an incoming req see
system.mem_ctrls0.rdQLenPdf::21                     0                       # What read queue length does an incoming req see
system.mem_ctrls0.rdQLenPdf::22                     0                       # What read queue length does an incoming req see
system.mem_ctrls0.rdQLenPdf::23                     0                       # What read queue length does an incoming req see
system.mem_ctrls0.rdQLenPdf::24                     0                       # What read queue length does an incoming req see
system.mem_ctrls0.rdQLenPdf::25                     0                       # What read queue length does an incoming req see
system.mem_ctrls0.rdQLenPdf::26                     0                       # What read queue length does an incoming req see
system.mem_ctrls0.rdQLenPdf::27                     0                       # What read queue length does an incoming req see
system.mem_ctrls0.rdQLenPdf::28                     0                       # What read queue length does an incoming req see
system.mem_ctrls0.rdQLenPdf::29                     0                       # What read queue length does an incoming req see
system.mem_ctrls0.rdQLenPdf::30                     0                       # What read queue length does an incoming req see
system.mem_ctrls0.rdQLenPdf::31                     0                       # What read queue length does an incoming req see
system.mem_ctrls0.wrQLenPdf::0                      2                       # What write queue length does an incoming req see
system.mem_ctrls0.wrQLenPdf::1                      2                       # What write queue length does an incoming req see
system.mem_ctrls0.wrQLenPdf::2                      2                       # What write queue length does an incoming req see
system.mem_ctrls0.wrQLenPdf::3                      2                       # What write queue length does an incoming req see
system.mem_ctrls0.wrQLenPdf::4                      2                       # What write queue length does an incoming req see
system.mem_ctrls0.wrQLenPdf::5                      2                       # What write queue length does an incoming req see
system.mem_ctrls0.wrQLenPdf::6                      2                       # What write queue length does an incoming req see
system.mem_ctrls0.wrQLenPdf::7                      2                       # What write queue length does an incoming req see
system.mem_ctrls0.wrQLenPdf::8                      2                       # What write queue length does an incoming req see
system.mem_ctrls0.wrQLenPdf::9                      2                       # What write queue length does an incoming req see
system.mem_ctrls0.wrQLenPdf::10                     2                       # What write queue length does an incoming req see
system.mem_ctrls0.wrQLenPdf::11                     2                       # What write queue length does an incoming req see
system.mem_ctrls0.wrQLenPdf::12                     2                       # What write queue length does an incoming req see
system.mem_ctrls0.wrQLenPdf::13                     2                       # What write queue length does an incoming req see
system.mem_ctrls0.wrQLenPdf::14                     2                       # What write queue length does an incoming req see
system.mem_ctrls0.wrQLenPdf::15                 19713                       # What write queue length does an incoming req see
system.mem_ctrls0.wrQLenPdf::16                 20639                       # What write queue length does an incoming req see
system.mem_ctrls0.wrQLenPdf::17                 30648                       # What write queue length does an incoming req see
system.mem_ctrls0.wrQLenPdf::18                 31561                       # What write queue length does an incoming req see
system.mem_ctrls0.wrQLenPdf::19                 31647                       # What write queue length does an incoming req see
system.mem_ctrls0.wrQLenPdf::20                 31647                       # What write queue length does an incoming req see
system.mem_ctrls0.wrQLenPdf::21                 31697                       # What write queue length does an incoming req see
system.mem_ctrls0.wrQLenPdf::22                 31928                       # What write queue length does an incoming req see
system.mem_ctrls0.wrQLenPdf::23                 31904                       # What write queue length does an incoming req see
system.mem_ctrls0.wrQLenPdf::24                 31786                       # What write queue length does an incoming req see
system.mem_ctrls0.wrQLenPdf::25                 31743                       # What write queue length does an incoming req see
system.mem_ctrls0.wrQLenPdf::26                 31691                       # What write queue length does an incoming req see
system.mem_ctrls0.wrQLenPdf::27                 31691                       # What write queue length does an incoming req see
system.mem_ctrls0.wrQLenPdf::28                 31718                       # What write queue length does an incoming req see
system.mem_ctrls0.wrQLenPdf::29                 31663                       # What write queue length does an incoming req see
system.mem_ctrls0.wrQLenPdf::30                 31668                       # What write queue length does an incoming req see
system.mem_ctrls0.wrQLenPdf::31                 31566                       # What write queue length does an incoming req see
system.mem_ctrls0.wrQLenPdf::32                 31551                       # What write queue length does an incoming req see
system.mem_ctrls0.wrQLenPdf::33                    44                       # What write queue length does an incoming req see
system.mem_ctrls0.wrQLenPdf::34                     3                       # What write queue length does an incoming req see
system.mem_ctrls0.wrQLenPdf::35                     0                       # What write queue length does an incoming req see
system.mem_ctrls0.wrQLenPdf::36                     0                       # What write queue length does an incoming req see
system.mem_ctrls0.wrQLenPdf::37                     0                       # What write queue length does an incoming req see
system.mem_ctrls0.wrQLenPdf::38                     0                       # What write queue length does an incoming req see
system.mem_ctrls0.wrQLenPdf::39                     0                       # What write queue length does an incoming req see
system.mem_ctrls0.wrQLenPdf::40                     0                       # What write queue length does an incoming req see
system.mem_ctrls0.wrQLenPdf::41                     0                       # What write queue length does an incoming req see
system.mem_ctrls0.wrQLenPdf::42                     0                       # What write queue length does an incoming req see
system.mem_ctrls0.wrQLenPdf::43                     0                       # What write queue length does an incoming req see
system.mem_ctrls0.wrQLenPdf::44                     0                       # What write queue length does an incoming req see
system.mem_ctrls0.wrQLenPdf::45                     0                       # What write queue length does an incoming req see
system.mem_ctrls0.wrQLenPdf::46                     0                       # What write queue length does an incoming req see
system.mem_ctrls0.wrQLenPdf::47                     0                       # What write queue length does an incoming req see
system.mem_ctrls0.wrQLenPdf::48                     0                       # What write queue length does an incoming req see
system.mem_ctrls0.wrQLenPdf::49                     0                       # What write queue length does an incoming req see
system.mem_ctrls0.wrQLenPdf::50                     0                       # What write queue length does an incoming req see
system.mem_ctrls0.wrQLenPdf::51                     0                       # What write queue length does an incoming req see
system.mem_ctrls0.wrQLenPdf::52                     0                       # What write queue length does an incoming req see
system.mem_ctrls0.wrQLenPdf::53                     0                       # What write queue length does an incoming req see
system.mem_ctrls0.wrQLenPdf::54                     0                       # What write queue length does an incoming req see
system.mem_ctrls0.wrQLenPdf::55                     0                       # What write queue length does an incoming req see
system.mem_ctrls0.wrQLenPdf::56                     0                       # What write queue length does an incoming req see
system.mem_ctrls0.wrQLenPdf::57                     0                       # What write queue length does an incoming req see
system.mem_ctrls0.wrQLenPdf::58                     0                       # What write queue length does an incoming req see
system.mem_ctrls0.wrQLenPdf::59                     0                       # What write queue length does an incoming req see
system.mem_ctrls0.wrQLenPdf::60                     0                       # What write queue length does an incoming req see
system.mem_ctrls0.wrQLenPdf::61                     0                       # What write queue length does an incoming req see
system.mem_ctrls0.wrQLenPdf::62                     0                       # What write queue length does an incoming req see
system.mem_ctrls0.wrQLenPdf::63                     0                       # What write queue length does an incoming req see
system.mem_ctrls0.bytesPerActivate::samples      1971562                       # Bytes accessed per row activation
system.mem_ctrls0.bytesPerActivate::mean    70.371168                       # Bytes accessed per row activation
system.mem_ctrls0.bytesPerActivate::gmean    67.600760                       # Bytes accessed per row activation
system.mem_ctrls0.bytesPerActivate::stdev    30.863240                       # Bytes accessed per row activation
system.mem_ctrls0.bytesPerActivate::0-127      1853759     94.02%     94.02% # Bytes accessed per row activation
system.mem_ctrls0.bytesPerActivate::128-255        97933      4.97%     98.99% # Bytes accessed per row activation
system.mem_ctrls0.bytesPerActivate::256-383        16079      0.82%     99.81% # Bytes accessed per row activation
system.mem_ctrls0.bytesPerActivate::384-511         3124      0.16%     99.97% # Bytes accessed per row activation
system.mem_ctrls0.bytesPerActivate::512-639          542      0.03%     99.99% # Bytes accessed per row activation
system.mem_ctrls0.bytesPerActivate::640-767          103      0.01%    100.00% # Bytes accessed per row activation
system.mem_ctrls0.bytesPerActivate::768-895           15      0.00%    100.00% # Bytes accessed per row activation
system.mem_ctrls0.bytesPerActivate::896-1023            6      0.00%    100.00% # Bytes accessed per row activation
system.mem_ctrls0.bytesPerActivate::1024-1151            1      0.00%    100.00% # Bytes accessed per row activation
system.mem_ctrls0.bytesPerActivate::total      1971562                       # Bytes accessed per row activation
system.mem_ctrls0.rdPerTurnAround::samples        31540                       # Reads before turning the bus around for writes
system.mem_ctrls0.rdPerTurnAround::mean     51.405041                       # Reads before turning the bus around for writes
system.mem_ctrls0.rdPerTurnAround::gmean    48.586042                       # Reads before turning the bus around for writes
system.mem_ctrls0.rdPerTurnAround::stdev   115.993487                       # Reads before turning the bus around for writes
system.mem_ctrls0.rdPerTurnAround::0-1023        31537     99.99%     99.99% # Reads before turning the bus around for writes
system.mem_ctrls0.rdPerTurnAround::1024-2047            1      0.00%     99.99% # Reads before turning the bus around for writes
system.mem_ctrls0.rdPerTurnAround::2048-3071            1      0.00%    100.00% # Reads before turning the bus around for writes
system.mem_ctrls0.rdPerTurnAround::19456-20479            1      0.00%    100.00% # Reads before turning the bus around for writes
system.mem_ctrls0.rdPerTurnAround::total        31540                       # Reads before turning the bus around for writes
system.mem_ctrls0.wrPerTurnAround::samples        31540                       # Writes before turning the bus around for reads
system.mem_ctrls0.wrPerTurnAround::mean     17.327806                       # Writes before turning the bus around for reads
system.mem_ctrls0.wrPerTurnAround::gmean    17.298218                       # Writes before turning the bus around for reads
system.mem_ctrls0.wrPerTurnAround::stdev     1.004600                       # Writes before turning the bus around for reads
system.mem_ctrls0.wrPerTurnAround::16           10886     34.51%     34.51% # Writes before turning the bus around for reads
system.mem_ctrls0.wrPerTurnAround::17             856      2.71%     37.23% # Writes before turning the bus around for reads
system.mem_ctrls0.wrPerTurnAround::18           18462     58.54%     95.76% # Writes before turning the bus around for reads
system.mem_ctrls0.wrPerTurnAround::19            1260      3.99%     99.76% # Writes before turning the bus around for reads
system.mem_ctrls0.wrPerTurnAround::20              67      0.21%     99.97% # Writes before turning the bus around for reads
system.mem_ctrls0.wrPerTurnAround::21               8      0.03%    100.00% # Writes before turning the bus around for reads
system.mem_ctrls0.wrPerTurnAround::27               1      0.00%    100.00% # Writes before turning the bus around for reads
system.mem_ctrls0.wrPerTurnAround::total        31540                       # Writes before turning the bus around for reads
system.mem_ctrls0.totQLat                 88478720817                       # Total ticks spent queuing
system.mem_ctrls0.totMemAccLat           118878489567                       # Total ticks spent from burst creation until serviced by the DRAM
system.mem_ctrls0.totBusLat                8106605000                       # Total ticks spent in databus transfers
system.mem_ctrls0.avgQLat                    54571.99                       # Average queueing delay per DRAM burst
system.mem_ctrls0.avgBusLat                   5000.00                       # Average bus latency per DRAM burst
system.mem_ctrls0.avgMemAccLat               73321.99                       # Average memory access latency per DRAM burst
system.mem_ctrls0.avgRdBW                       60.40                       # Average DRAM read bandwidth in MiByte/s
system.mem_ctrls0.avgWrBW                       20.36                       # Average achieved write bandwidth in MiByte/s
system.mem_ctrls0.avgRdBWSys                    60.41                       # Average system read bandwidth in MiByte/s
system.mem_ctrls0.avgWrBWSys                    20.36                       # Average system write bandwidth in MiByte/s
system.mem_ctrls0.peakBW                     12800.00                       # Theoretical peak bandwidth in MiByte/s
system.mem_ctrls0.busUtil                        0.63                       # Data bus utilization in percentage
system.mem_ctrls0.busUtilRead                    0.47                       # Data bus utilization in percentage for reads
system.mem_ctrls0.busUtilWrite                   0.16                       # Data bus utilization in percentage for writes
system.mem_ctrls0.avgRdQLen                      1.01                       # Average read queue length when enqueuing
system.mem_ctrls0.avgWrQLen                     24.36                       # Average write queue length when enqueuing
system.mem_ctrls0.readRowHits                   24116                       # Number of row buffer hits during reads
system.mem_ctrls0.writeRowHits                 172152                       # Number of row buffer hits during writes
system.mem_ctrls0.readRowHitRate                 1.49                       # Row buffer hit rate for reads
system.mem_ctrls0.writeRowHitRate               31.50                       # Row buffer hit rate for writes
system.mem_ctrls0.avgGap                    792362.34                       # Average gap between requests
system.mem_ctrls0.pageHitRate                    9.05                       # Row buffer hit rate, read and write combined
system.mem_ctrls0_0.actEnergy              7108598280                       # Energy for activate commands per rank (pJ)
system.mem_ctrls0_0.preEnergy              3778294410                       # Energy for precharge commands per rank (pJ)
system.mem_ctrls0_0.readEnergy             5855685360                       # Energy for read commands per rank (pJ)
system.mem_ctrls0_0.writeEnergy            1435082400                       # Energy for write commands per rank (pJ)
system.mem_ctrls0_0.refreshEnergy        135213424320.000031                       # Energy for refresh commands per rank (pJ)
system.mem_ctrls0_0.actBackEnergy         68885026680                       # Energy for active background per rank (pJ)
system.mem_ctrls0_0.preBackEnergy          6956892000                       # Energy for precharge background per rank (pJ)
system.mem_ctrls0_0.actPowerDownEnergy   369043390080                       # Energy for active power-down per rank (pJ)
system.mem_ctrls0_0.prePowerDownEnergy   186939170400                       # Energy for precharge power-down per rank (pJ)
system.mem_ctrls0_0.selfRefreshEnergy     79513346325                       # Energy for self refresh per rank (pJ)
system.mem_ctrls0_0.totalEnergy          864796727295                       # Total energy per rank (pJ)
system.mem_ctrls0_0.averagePower           503.384067                       # Core power per rank (mW)
system.mem_ctrls0_0.totalIdleTime        1548636469262                       # Total Idle time Per DRAM Rank
system.mem_ctrls0_0.memoryStateTime::IDLE   9954345069                       # Time in different power states
system.mem_ctrls0_0.memoryStateTime::REF  57408044000                       # Time in different power states
system.mem_ctrls0_0.memoryStateTime::SREF 252508142166                       # Time in different power states
system.mem_ctrls0_0.memoryStateTime::PRE_PDN 486819549430                       # Time in different power states
system.mem_ctrls0_0.memoryStateTime::ACT 101965498167                       # Time in different power states
system.mem_ctrls0_0.memoryStateTime::ACT_PDN 809310411492                       # Time in different power states
system.mem_ctrls0_1.actEnergy              6968425800                       # Energy for activate commands per rank (pJ)
system.mem_ctrls0_1.preEnergy              3703783380                       # Energy for precharge commands per rank (pJ)
system.mem_ctrls0_1.readEnergy             5720546580                       # Energy for read commands per rank (pJ)
system.mem_ctrls0_1.writeEnergy            1417746780                       # Energy for write commands per rank (pJ)
system.mem_ctrls0_1.refreshEnergy        137228828880.000031                       # Energy for refresh commands per rank (pJ)
system.mem_ctrls0_1.actBackEnergy         67973575590                       # Energy for active background per rank (pJ)
system.mem_ctrls0_1.preBackEnergy          6770872800                       # Energy for precharge background per rank (pJ)
system.mem_ctrls0_1.actPowerDownEnergy   380173931700                       # Energy for active power-down per rank (pJ)
system.mem_ctrls0_1.prePowerDownEnergy   191252198400                       # Energy for precharge power-down per rank (pJ)
system.mem_ctrls0_1.selfRefreshEnergy     70978282050                       # Energy for self refresh per rank (pJ)
system.mem_ctrls0_1.totalEnergy          872266896870                       # Total energy per rank (pJ)
system.mem_ctrls0_1.averagePower           507.732336                       # Core power per rank (mW)
system.mem_ctrls0_1.totalIdleTime        1551087535489                       # Total Idle time Per DRAM Rank
system.mem_ctrls0_1.memoryStateTime::IDLE   9722611690                       # Time in different power states
system.mem_ctrls0_1.memoryStateTime::REF  58255256000                       # Time in different power states
system.mem_ctrls0_1.memoryStateTime::SREF 219326037649                       # Time in different power states
system.mem_ctrls0_1.memoryStateTime::PRE_PDN 498052530378                       # Time in different power states
system.mem_ctrls0_1.memoryStateTime::ACT  98899825543                       # Time in different power states
system.mem_ctrls0_1.memoryStateTime::ACT_PDN 833709729064                       # Time in different power states
system.mem_ctrls1.pwrStateResidencyTicks::UNDEFINED 35021343914685                       # Cumulative time (in ticks) in various power states
system.mem_ctrls1.bytes_read::cpu.inst             64                       # Number of bytes read from this memory
system.mem_ctrls1.bytes_read::cpu.data            192                       # Number of bytes read from this memory
system.mem_ctrls1.bytes_read::switch_cpus.inst         8128                       # Number of bytes read from this memory
system.mem_ctrls1.bytes_read::switch_cpus.data     86117568                       # Number of bytes read from this memory
system.mem_ctrls1.bytes_read::switch_cpus_1.data     17640384                       # Number of bytes read from this memory
system.mem_ctrls1.bytes_read::total         103766336                       # Number of bytes read from this memory
system.mem_ctrls1.bytes_inst_read::cpu.inst           64                       # Number of instructions bytes read from this memory
system.mem_ctrls1.bytes_inst_read::switch_cpus.inst         8128                       # Number of instructions bytes read from this memory
system.mem_ctrls1.bytes_inst_read::total         8192                       # Number of instructions bytes read from this memory
system.mem_ctrls1.bytes_written::writebacks     34960256                       # Number of bytes written to this memory
system.mem_ctrls1.bytes_written::total       34960256                       # Number of bytes written to this memory
system.mem_ctrls1.num_reads::cpu.inst               1                       # Number of read requests responded to by this memory
system.mem_ctrls1.num_reads::cpu.data               3                       # Number of read requests responded to by this memory
system.mem_ctrls1.num_reads::switch_cpus.inst          127                       # Number of read requests responded to by this memory
system.mem_ctrls1.num_reads::switch_cpus.data      1345587                       # Number of read requests responded to by this memory
system.mem_ctrls1.num_reads::switch_cpus_1.data       275631                       # Number of read requests responded to by this memory
system.mem_ctrls1.num_reads::total            1621349                       # Number of read requests responded to by this memory
system.mem_ctrls1.num_writes::writebacks       546254                       # Number of write requests responded to by this memory
system.mem_ctrls1.num_writes::total            546254                       # Number of write requests responded to by this memory
system.mem_ctrls1.bw_read::cpu.inst                37                       # Total read bandwidth from this memory (bytes/s)
system.mem_ctrls1.bw_read::cpu.data               112                       # Total read bandwidth from this memory (bytes/s)
system.mem_ctrls1.bw_read::switch_cpus.inst         4731                       # Total read bandwidth from this memory (bytes/s)
system.mem_ctrls1.bw_read::switch_cpus.data     50127633                       # Total read bandwidth from this memory (bytes/s)
system.mem_ctrls1.bw_read::switch_cpus_1.data     10268180                       # Total read bandwidth from this memory (bytes/s)
system.mem_ctrls1.bw_read::total             60400693                       # Total read bandwidth from this memory (bytes/s)
system.mem_ctrls1.bw_inst_read::cpu.inst           37                       # Instruction read bandwidth from this memory (bytes/s)
system.mem_ctrls1.bw_inst_read::switch_cpus.inst         4731                       # Instruction read bandwidth from this memory (bytes/s)
system.mem_ctrls1.bw_inst_read::total            4768                       # Instruction read bandwidth from this memory (bytes/s)
system.mem_ctrls1.bw_write::writebacks       20349795                       # Write bandwidth from this memory (bytes/s)
system.mem_ctrls1.bw_write::total            20349795                       # Write bandwidth from this memory (bytes/s)
system.mem_ctrls1.bw_total::writebacks       20349795                       # Total bandwidth to/from this memory (bytes/s)
system.mem_ctrls1.bw_total::cpu.inst               37                       # Total bandwidth to/from this memory (bytes/s)
system.mem_ctrls1.bw_total::cpu.data              112                       # Total bandwidth to/from this memory (bytes/s)
system.mem_ctrls1.bw_total::switch_cpus.inst         4731                       # Total bandwidth to/from this memory (bytes/s)
system.mem_ctrls1.bw_total::switch_cpus.data     50127633                       # Total bandwidth to/from this memory (bytes/s)
system.mem_ctrls1.bw_total::switch_cpus_1.data     10268180                       # Total bandwidth to/from this memory (bytes/s)
system.mem_ctrls1.bw_total::total            80750488                       # Total bandwidth to/from this memory (bytes/s)
system.mem_ctrls1.readReqs                    1621349                       # Number of read requests accepted
system.mem_ctrls1.writeReqs                    546254                       # Number of write requests accepted
system.mem_ctrls1.readBursts                  1621349                       # Number of DRAM read bursts, including those serviced by the write queue
system.mem_ctrls1.writeBursts                  546254                       # Number of DRAM write bursts, including those merged in the write queue
system.mem_ctrls1.bytesReadDRAM             103748800                       # Total number of bytes read from DRAM
system.mem_ctrls1.bytesReadWrQ                  17536                       # Total number of bytes read from write queue
system.mem_ctrls1.bytesWritten               34958272                       # Total number of bytes written to DRAM
system.mem_ctrls1.bytesReadSys              103766336                       # Total read bytes from the system interface side
system.mem_ctrls1.bytesWrittenSys            34960256                       # Total written bytes from the system interface side
system.mem_ctrls1.servicedByWrQ                   274                       # Number of DRAM read bursts serviced by the write queue
system.mem_ctrls1.mergedWrBursts                    0                       # Number of DRAM write bursts merged with an existing one
system.mem_ctrls1.neitherReadNorWriteReqs            0                       # Number of requests that are neither read nor write
system.mem_ctrls1.perBankRdBursts::0           105665                       # Per bank write bursts
system.mem_ctrls1.perBankRdBursts::1           103279                       # Per bank write bursts
system.mem_ctrls1.perBankRdBursts::2           103849                       # Per bank write bursts
system.mem_ctrls1.perBankRdBursts::3           101156                       # Per bank write bursts
system.mem_ctrls1.perBankRdBursts::4           101689                       # Per bank write bursts
system.mem_ctrls1.perBankRdBursts::5           101886                       # Per bank write bursts
system.mem_ctrls1.perBankRdBursts::6           101165                       # Per bank write bursts
system.mem_ctrls1.perBankRdBursts::7           101778                       # Per bank write bursts
system.mem_ctrls1.perBankRdBursts::8           100531                       # Per bank write bursts
system.mem_ctrls1.perBankRdBursts::9            99401                       # Per bank write bursts
system.mem_ctrls1.perBankRdBursts::10           99317                       # Per bank write bursts
system.mem_ctrls1.perBankRdBursts::11           99673                       # Per bank write bursts
system.mem_ctrls1.perBankRdBursts::12           98636                       # Per bank write bursts
system.mem_ctrls1.perBankRdBursts::13           98501                       # Per bank write bursts
system.mem_ctrls1.perBankRdBursts::14          100893                       # Per bank write bursts
system.mem_ctrls1.perBankRdBursts::15          103656                       # Per bank write bursts
system.mem_ctrls1.perBankWrBursts::0            36404                       # Per bank write bursts
system.mem_ctrls1.perBankWrBursts::1            35294                       # Per bank write bursts
system.mem_ctrls1.perBankWrBursts::2            34774                       # Per bank write bursts
system.mem_ctrls1.perBankWrBursts::3            33682                       # Per bank write bursts
system.mem_ctrls1.perBankWrBursts::4            33593                       # Per bank write bursts
system.mem_ctrls1.perBankWrBursts::5            33597                       # Per bank write bursts
system.mem_ctrls1.perBankWrBursts::6            33488                       # Per bank write bursts
system.mem_ctrls1.perBankWrBursts::7            33969                       # Per bank write bursts
system.mem_ctrls1.perBankWrBursts::8            33508                       # Per bank write bursts
system.mem_ctrls1.perBankWrBursts::9            33322                       # Per bank write bursts
system.mem_ctrls1.perBankWrBursts::10           33790                       # Per bank write bursts
system.mem_ctrls1.perBankWrBursts::11           33665                       # Per bank write bursts
system.mem_ctrls1.perBankWrBursts::12           33541                       # Per bank write bursts
system.mem_ctrls1.perBankWrBursts::13           33600                       # Per bank write bursts
system.mem_ctrls1.perBankWrBursts::14           34447                       # Per bank write bursts
system.mem_ctrls1.perBankWrBursts::15           35549                       # Per bank write bursts
system.mem_ctrls1.numRdRetry                        0                       # Number of times read queue was full causing retry
system.mem_ctrls1.numWrRetry                        0                       # Number of times write queue was full causing retry
system.mem_ctrls1.totGap                 1717965388260                       # Total gap between requests
system.mem_ctrls1.readPktSize::0                    0                       # Read request sizes (log2)
system.mem_ctrls1.readPktSize::1                    0                       # Read request sizes (log2)
system.mem_ctrls1.readPktSize::2                    0                       # Read request sizes (log2)
system.mem_ctrls1.readPktSize::3                    0                       # Read request sizes (log2)
system.mem_ctrls1.readPktSize::4                    0                       # Read request sizes (log2)
system.mem_ctrls1.readPktSize::5                    0                       # Read request sizes (log2)
system.mem_ctrls1.readPktSize::6              1621349                       # Read request sizes (log2)
system.mem_ctrls1.writePktSize::0                   0                       # Write request sizes (log2)
system.mem_ctrls1.writePktSize::1                   0                       # Write request sizes (log2)
system.mem_ctrls1.writePktSize::2                   0                       # Write request sizes (log2)
system.mem_ctrls1.writePktSize::3                   0                       # Write request sizes (log2)
system.mem_ctrls1.writePktSize::4                   0                       # Write request sizes (log2)
system.mem_ctrls1.writePktSize::5                   0                       # Write request sizes (log2)
system.mem_ctrls1.writePktSize::6              546254                       # Write request sizes (log2)
system.mem_ctrls1.rdQLenPdf::0                1535876                       # What read queue length does an incoming req see
system.mem_ctrls1.rdQLenPdf::1                  76557                       # What read queue length does an incoming req see
system.mem_ctrls1.rdQLenPdf::2                   8340                       # What read queue length does an incoming req see
system.mem_ctrls1.rdQLenPdf::3                    302                       # What read queue length does an incoming req see
system.mem_ctrls1.rdQLenPdf::4                      0                       # What read queue length does an incoming req see
system.mem_ctrls1.rdQLenPdf::5                      0                       # What read queue length does an incoming req see
system.mem_ctrls1.rdQLenPdf::6                      0                       # What read queue length does an incoming req see
system.mem_ctrls1.rdQLenPdf::7                      0                       # What read queue length does an incoming req see
system.mem_ctrls1.rdQLenPdf::8                      0                       # What read queue length does an incoming req see
system.mem_ctrls1.rdQLenPdf::9                      0                       # What read queue length does an incoming req see
system.mem_ctrls1.rdQLenPdf::10                     0                       # What read queue length does an incoming req see
system.mem_ctrls1.rdQLenPdf::11                     0                       # What read queue length does an incoming req see
system.mem_ctrls1.rdQLenPdf::12                     0                       # What read queue length does an incoming req see
system.mem_ctrls1.rdQLenPdf::13                     0                       # What read queue length does an incoming req see
system.mem_ctrls1.rdQLenPdf::14                     0                       # What read queue length does an incoming req see
system.mem_ctrls1.rdQLenPdf::15                     0                       # What read queue length does an incoming req see
system.mem_ctrls1.rdQLenPdf::16                     0                       # What read queue length does an incoming req see
system.mem_ctrls1.rdQLenPdf::17                     0                       # What read queue length does an incoming req see
system.mem_ctrls1.rdQLenPdf::18                     0                       # What read queue length does an incoming req see
system.mem_ctrls1.rdQLenPdf::19                     0                       # What read queue length does an incoming req see
system.mem_ctrls1.rdQLenPdf::20                     0                       # What read queue length does an incoming req see
system.mem_ctrls1.rdQLenPdf::21                     0                       # What read queue length does an incoming req see
system.mem_ctrls1.rdQLenPdf::22                     0                       # What read queue length does an incoming req see
system.mem_ctrls1.rdQLenPdf::23                     0                       # What read queue length does an incoming req see
system.mem_ctrls1.rdQLenPdf::24                     0                       # What read queue length does an incoming req see
system.mem_ctrls1.rdQLenPdf::25                     0                       # What read queue length does an incoming req see
system.mem_ctrls1.rdQLenPdf::26                     0                       # What read queue length does an incoming req see
system.mem_ctrls1.rdQLenPdf::27                     0                       # What read queue length does an incoming req see
system.mem_ctrls1.rdQLenPdf::28                     0                       # What read queue length does an incoming req see
system.mem_ctrls1.rdQLenPdf::29                     0                       # What read queue length does an incoming req see
system.mem_ctrls1.rdQLenPdf::30                     0                       # What read queue length does an incoming req see
system.mem_ctrls1.rdQLenPdf::31                     0                       # What read queue length does an incoming req see
system.mem_ctrls1.wrQLenPdf::0                      2                       # What write queue length does an incoming req see
system.mem_ctrls1.wrQLenPdf::1                      2                       # What write queue length does an incoming req see
system.mem_ctrls1.wrQLenPdf::2                      2                       # What write queue length does an incoming req see
system.mem_ctrls1.wrQLenPdf::3                      2                       # What write queue length does an incoming req see
system.mem_ctrls1.wrQLenPdf::4                      2                       # What write queue length does an incoming req see
system.mem_ctrls1.wrQLenPdf::5                      2                       # What write queue length does an incoming req see
system.mem_ctrls1.wrQLenPdf::6                      2                       # What write queue length does an incoming req see
system.mem_ctrls1.wrQLenPdf::7                      2                       # What write queue length does an incoming req see
system.mem_ctrls1.wrQLenPdf::8                      2                       # What write queue length does an incoming req see
system.mem_ctrls1.wrQLenPdf::9                      2                       # What write queue length does an incoming req see
system.mem_ctrls1.wrQLenPdf::10                     2                       # What write queue length does an incoming req see
system.mem_ctrls1.wrQLenPdf::11                     2                       # What write queue length does an incoming req see
system.mem_ctrls1.wrQLenPdf::12                     2                       # What write queue length does an incoming req see
system.mem_ctrls1.wrQLenPdf::13                     2                       # What write queue length does an incoming req see
system.mem_ctrls1.wrQLenPdf::14                     2                       # What write queue length does an incoming req see
system.mem_ctrls1.wrQLenPdf::15                 19926                       # What write queue length does an incoming req see
system.mem_ctrls1.wrQLenPdf::16                 20904                       # What write queue length does an incoming req see
system.mem_ctrls1.wrQLenPdf::17                 30578                       # What write queue length does an incoming req see
system.mem_ctrls1.wrQLenPdf::18                 31530                       # What write queue length does an incoming req see
system.mem_ctrls1.wrQLenPdf::19                 31599                       # What write queue length does an incoming req see
system.mem_ctrls1.wrQLenPdf::20                 31611                       # What write queue length does an incoming req see
system.mem_ctrls1.wrQLenPdf::21                 31650                       # What write queue length does an incoming req see
system.mem_ctrls1.wrQLenPdf::22                 31880                       # What write queue length does an incoming req see
system.mem_ctrls1.wrQLenPdf::23                 31826                       # What write queue length does an incoming req see
system.mem_ctrls1.wrQLenPdf::24                 31736                       # What write queue length does an incoming req see
system.mem_ctrls1.wrQLenPdf::25                 31691                       # What write queue length does an incoming req see
system.mem_ctrls1.wrQLenPdf::26                 31663                       # What write queue length does an incoming req see
system.mem_ctrls1.wrQLenPdf::27                 31653                       # What write queue length does an incoming req see
system.mem_ctrls1.wrQLenPdf::28                 31663                       # What write queue length does an incoming req see
system.mem_ctrls1.wrQLenPdf::29                 31612                       # What write queue length does an incoming req see
system.mem_ctrls1.wrQLenPdf::30                 31636                       # What write queue length does an incoming req see
system.mem_ctrls1.wrQLenPdf::31                 31507                       # What write queue length does an incoming req see
system.mem_ctrls1.wrQLenPdf::32                 31500                       # What write queue length does an incoming req see
system.mem_ctrls1.wrQLenPdf::33                    54                       # What write queue length does an incoming req see
system.mem_ctrls1.wrQLenPdf::34                     5                       # What write queue length does an incoming req see
system.mem_ctrls1.wrQLenPdf::35                     0                       # What write queue length does an incoming req see
system.mem_ctrls1.wrQLenPdf::36                     0                       # What write queue length does an incoming req see
system.mem_ctrls1.wrQLenPdf::37                     0                       # What write queue length does an incoming req see
system.mem_ctrls1.wrQLenPdf::38                     0                       # What write queue length does an incoming req see
system.mem_ctrls1.wrQLenPdf::39                     0                       # What write queue length does an incoming req see
system.mem_ctrls1.wrQLenPdf::40                     0                       # What write queue length does an incoming req see
system.mem_ctrls1.wrQLenPdf::41                     0                       # What write queue length does an incoming req see
system.mem_ctrls1.wrQLenPdf::42                     0                       # What write queue length does an incoming req see
system.mem_ctrls1.wrQLenPdf::43                     0                       # What write queue length does an incoming req see
system.mem_ctrls1.wrQLenPdf::44                     0                       # What write queue length does an incoming req see
system.mem_ctrls1.wrQLenPdf::45                     0                       # What write queue length does an incoming req see
system.mem_ctrls1.wrQLenPdf::46                     0                       # What write queue length does an incoming req see
system.mem_ctrls1.wrQLenPdf::47                     0                       # What write queue length does an incoming req see
system.mem_ctrls1.wrQLenPdf::48                     0                       # What write queue length does an incoming req see
system.mem_ctrls1.wrQLenPdf::49                     0                       # What write queue length does an incoming req see
system.mem_ctrls1.wrQLenPdf::50                     0                       # What write queue length does an incoming req see
system.mem_ctrls1.wrQLenPdf::51                     0                       # What write queue length does an incoming req see
system.mem_ctrls1.wrQLenPdf::52                     0                       # What write queue length does an incoming req see
system.mem_ctrls1.wrQLenPdf::53                     0                       # What write queue length does an incoming req see
system.mem_ctrls1.wrQLenPdf::54                     0                       # What write queue length does an incoming req see
system.mem_ctrls1.wrQLenPdf::55                     0                       # What write queue length does an incoming req see
system.mem_ctrls1.wrQLenPdf::56                     0                       # What write queue length does an incoming req see
system.mem_ctrls1.wrQLenPdf::57                     0                       # What write queue length does an incoming req see
system.mem_ctrls1.wrQLenPdf::58                     0                       # What write queue length does an incoming req see
system.mem_ctrls1.wrQLenPdf::59                     0                       # What write queue length does an incoming req see
system.mem_ctrls1.wrQLenPdf::60                     0                       # What write queue length does an incoming req see
system.mem_ctrls1.wrQLenPdf::61                     0                       # What write queue length does an incoming req see
system.mem_ctrls1.wrQLenPdf::62                     0                       # What write queue length does an incoming req see
system.mem_ctrls1.wrQLenPdf::63                     0                       # What write queue length does an incoming req see
system.mem_ctrls1.bytesPerActivate::samples      1971479                       # Bytes accessed per row activation
system.mem_ctrls1.bytesPerActivate::mean    70.356665                       # Bytes accessed per row activation
system.mem_ctrls1.bytesPerActivate::gmean    67.597959                       # Bytes accessed per row activation
system.mem_ctrls1.bytesPerActivate::stdev    30.736016                       # Bytes accessed per row activation
system.mem_ctrls1.bytesPerActivate::0-127      1853640     94.02%     94.02% # Bytes accessed per row activation
system.mem_ctrls1.bytesPerActivate::128-255        98005      4.97%     98.99% # Bytes accessed per row activation
system.mem_ctrls1.bytesPerActivate::256-383        16147      0.82%     99.81% # Bytes accessed per row activation
system.mem_ctrls1.bytesPerActivate::384-511         3011      0.15%     99.97% # Bytes accessed per row activation
system.mem_ctrls1.bytesPerActivate::512-639          567      0.03%     99.99% # Bytes accessed per row activation
system.mem_ctrls1.bytesPerActivate::640-767           84      0.00%    100.00% # Bytes accessed per row activation
system.mem_ctrls1.bytesPerActivate::768-895           18      0.00%    100.00% # Bytes accessed per row activation
system.mem_ctrls1.bytesPerActivate::896-1023            4      0.00%    100.00% # Bytes accessed per row activation
system.mem_ctrls1.bytesPerActivate::1024-1151            3      0.00%    100.00% # Bytes accessed per row activation
system.mem_ctrls1.bytesPerActivate::total      1971479                       # Bytes accessed per row activation
system.mem_ctrls1.rdPerTurnAround::samples        31492                       # Reads before turning the bus around for writes
system.mem_ctrls1.rdPerTurnAround::mean     51.474660                       # Reads before turning the bus around for writes
system.mem_ctrls1.rdPerTurnAround::stdev   115.756108                       # Reads before turning the bus around for writes
system.mem_ctrls1.rdPerTurnAround::0-1023        31488     99.99%     99.99% # Reads before turning the bus around for writes
system.mem_ctrls1.rdPerTurnAround::1024-2047            2      0.01%     99.99% # Reads before turning the bus around for writes
system.mem_ctrls1.rdPerTurnAround::2048-3071            1      0.00%    100.00% # Reads before turning the bus around for writes
system.mem_ctrls1.rdPerTurnAround::19456-20479            1      0.00%    100.00% # Reads before turning the bus around for writes
system.mem_ctrls1.rdPerTurnAround::total        31492                       # Reads before turning the bus around for writes
system.mem_ctrls1.wrPerTurnAround::samples        31492                       # Writes before turning the bus around for reads
system.mem_ctrls1.wrPerTurnAround::mean     17.344818                       # Writes before turning the bus around for reads
system.mem_ctrls1.wrPerTurnAround::gmean    17.315528                       # Writes before turning the bus around for reads
system.mem_ctrls1.wrPerTurnAround::stdev     0.999136                       # Writes before turning the bus around for reads
system.mem_ctrls1.wrPerTurnAround::15               1      0.00%      0.00% # Writes before turning the bus around for reads
system.mem_ctrls1.wrPerTurnAround::16           10603     33.67%     33.67% # Writes before turning the bus around for reads
system.mem_ctrls1.wrPerTurnAround::17             877      2.78%     36.46% # Writes before turning the bus around for reads
system.mem_ctrls1.wrPerTurnAround::18           18654     59.23%     95.69% # Writes before turning the bus around for reads
system.mem_ctrls1.wrPerTurnAround::19            1267      4.02%     99.71% # Writes before turning the bus around for reads
system.mem_ctrls1.wrPerTurnAround::20              84      0.27%     99.98% # Writes before turning the bus around for reads
system.mem_ctrls1.wrPerTurnAround::21               6      0.02%    100.00% # Writes before turning the bus around for reads
system.mem_ctrls1.wrPerTurnAround::total        31492                       # Writes before turning the bus around for reads
system.mem_ctrls1.totQLat                 88584762583                       # Total ticks spent queuing
system.mem_ctrls1.totMemAccLat           118979918833                       # Total ticks spent from burst creation until serviced by the DRAM
system.mem_ctrls1.totBusLat                8105375000                       # Total ticks spent in databus transfers
system.mem_ctrls1.avgQLat                    54645.69                       # Average queueing delay per DRAM burst
system.mem_ctrls1.avgBusLat                   5000.00                       # Average bus latency per DRAM burst
system.mem_ctrls1.avgMemAccLat               73395.69                       # Average memory access latency per DRAM burst
system.mem_ctrls1.avgRdBW                       60.39                       # Average DRAM read bandwidth in MiByte/s
system.mem_ctrls1.avgWrBW                       20.35                       # Average achieved write bandwidth in MiByte/s
system.mem_ctrls1.avgRdBWSys                    60.40                       # Average system read bandwidth in MiByte/s
system.mem_ctrls1.avgWrBWSys                    20.35                       # Average system write bandwidth in MiByte/s
system.mem_ctrls1.peakBW                     12800.00                       # Theoretical peak bandwidth in MiByte/s
system.mem_ctrls1.busUtil                        0.63                       # Data bus utilization in percentage
system.mem_ctrls1.busUtilRead                    0.47                       # Data bus utilization in percentage for reads
system.mem_ctrls1.busUtilWrite                   0.16                       # Data bus utilization in percentage for writes
system.mem_ctrls1.avgRdQLen                      1.01                       # Average read queue length when enqueuing
system.mem_ctrls1.avgWrQLen                     24.35                       # Average write queue length when enqueuing
system.mem_ctrls1.readRowHits                   23889                       # Number of row buffer hits during reads
system.mem_ctrls1.writeRowHits                 171924                       # Number of row buffer hits during writes
system.mem_ctrls1.readRowHitRate                 1.47                       # Row buffer hit rate for reads
system.mem_ctrls1.writeRowHitRate               31.47                       # Row buffer hit rate for writes
system.mem_ctrls1.avgGap                    792564.59                       # Average gap between requests
system.mem_ctrls1.pageHitRate                    9.03                       # Row buffer hit rate, read and write combined
system.mem_ctrls1_0.actEnergy              7112389620                       # Energy for activate commands per rank (pJ)
system.mem_ctrls1_0.preEnergy              3780309555                       # Energy for precharge commands per rank (pJ)
system.mem_ctrls1_0.readEnergy             5858134380                       # Energy for read commands per rank (pJ)
system.mem_ctrls1_0.writeEnergy            1434461220                       # Energy for write commands per rank (pJ)
system.mem_ctrls1_0.refreshEnergy        135038866560.000031                       # Energy for refresh commands per rank (pJ)
system.mem_ctrls1_0.actBackEnergy         68794849830                       # Energy for active background per rank (pJ)
system.mem_ctrls1_0.preBackEnergy          6933109920                       # Energy for precharge background per rank (pJ)
system.mem_ctrls1_0.actPowerDownEnergy   368978810220                       # Energy for active power-down per rank (pJ)
system.mem_ctrls1_0.prePowerDownEnergy   186705506400                       # Energy for precharge power-down per rank (pJ)
system.mem_ctrls1_0.selfRefreshEnergy     79662559725                       # Energy for self refresh per rank (pJ)
system.mem_ctrls1_0.totalEnergy          864361291380                       # Total energy per rank (pJ)
system.mem_ctrls1_0.averagePower           503.130611                       # Core power per rank (mW)
system.mem_ctrls1_0.totalIdleTime        1548909146020                       # Total Idle time Per DRAM Rank
system.mem_ctrls1_0.memoryStateTime::IDLE   9900075374                       # Time in different power states
system.mem_ctrls1_0.memoryStateTime::REF  57332944000                       # Time in different power states
system.mem_ctrls1_0.memoryStateTime::SREF 253530225870                       # Time in different power states
system.mem_ctrls1_0.memoryStateTime::PRE_PDN 486213343836                       # Time in different power states
system.mem_ctrls1_0.memoryStateTime::ACT 101822378583                       # Time in different power states
system.mem_ctrls1_0.memoryStateTime::ACT_PDN 809167022661                       # Time in different power states
system.mem_ctrls1_1.actEnergy              6964013280                       # Energy for activate commands per rank (pJ)
system.mem_ctrls1_1.preEnergy              3701453250                       # Energy for precharge commands per rank (pJ)
system.mem_ctrls1_1.readEnergy             5716341120                       # Energy for read commands per rank (pJ)
system.mem_ctrls1_1.writeEnergy            1416822840                       # Energy for write commands per rank (pJ)
system.mem_ctrls1_1.refreshEnergy        137390479200.000031                       # Energy for refresh commands per rank (pJ)
system.mem_ctrls1_1.actBackEnergy         67765153950                       # Energy for active background per rank (pJ)
system.mem_ctrls1_1.preBackEnergy          6782808000                       # Energy for precharge background per rank (pJ)
system.mem_ctrls1_1.actPowerDownEnergy   380777602170                       # Energy for active power-down per rank (pJ)
system.mem_ctrls1_1.prePowerDownEnergy   191480435520                       # Energy for precharge power-down per rank (pJ)
system.mem_ctrls1_1.selfRefreshEnergy     70662271170                       # Energy for self refresh per rank (pJ)
system.mem_ctrls1_1.totalEnergy          872738838300                       # Total energy per rank (pJ)
system.mem_ctrls1_1.averagePower           508.007041                       # Core power per rank (mW)
system.mem_ctrls1_1.totalIdleTime        1551513886044                       # Total Idle time Per DRAM Rank
system.mem_ctrls1_1.memoryStateTime::IDLE   9731534202                       # Time in different power states
system.mem_ctrls1_1.memoryStateTime::REF  58323924000                       # Time in different power states
system.mem_ctrls1_1.memoryStateTime::SREF 217827859842                       # Time in different power states
system.mem_ctrls1_1.memoryStateTime::PRE_PDN 498645969506                       # Time in different power states
system.mem_ctrls1_1.memoryStateTime::ACT  98396409187                       # Time in different power states
system.mem_ctrls1_1.memoryStateTime::ACT_PDN 835040293587                       # Time in different power states
system.pwrStateResidencyTicks::UNDEFINED 35021343914685                       # Cumulative time (in ticks) in various power states
system.cpu.branchPred.lookups                       0                       # Number of BP lookups
system.cpu.branchPred.condPredicted                 0                       # Number of conditional branches predicted
system.cpu.branchPred.condIncorrect                 0                       # Number of conditional branches incorrect
system.cpu.branchPred.BTBLookups                    0                       # Number of BTB lookups
system.cpu.branchPred.BTBHits                       0                       # Number of BTB hits
system.cpu.branchPred.BTBCorrect                    0                       # Number of correct BTB predictions (this stat may not work properly.
system.cpu.branchPred.BTBHitPct                   nan                       # BTB Hit Percentage
system.cpu.branchPred.usedRAS                       0                       # Number of times the RAS was used to get a target.
system.cpu.branchPred.RASInCorrect                  0                       # Number of incorrect RAS predictions.
system.cpu.branchPred.indirectLookups               0                       # Number of indirect predictor lookups.
system.cpu.branchPred.indirectHits                  0                       # Number of indirect target hits.
system.cpu.branchPred.indirectMisses                0                       # Number of indirect misses.
system.cpu.branchPredindirectMispredicted            0                       # Number of mispredicted indirect branches.
system.cpu_voltage_domain.voltage                   1                       # Voltage in Volts
system.cpu_clk_domain.clock                       333                       # Clock period in ticks
system.cpu.dtb.fetch_hits                           0                       # ITB hits
system.cpu.dtb.fetch_misses                         0                       # ITB misses
system.cpu.dtb.fetch_acv                            0                       # ITB acv
system.cpu.dtb.fetch_accesses                       0                       # ITB accesses
system.cpu.dtb.read_hits                           16                       # DTB read hits
system.cpu.dtb.read_misses                          0                       # DTB read misses
system.cpu.dtb.read_acv                             0                       # DTB read access violations
system.cpu.dtb.read_accesses                       16                       # DTB read accesses
system.cpu.dtb.write_hits                           1                       # DTB write hits
system.cpu.dtb.write_misses                         0                       # DTB write misses
system.cpu.dtb.write_acv                            0                       # DTB write access violations
system.cpu.dtb.write_accesses                       1                       # DTB write accesses
system.cpu.dtb.data_hits                           17                       # DTB hits
system.cpu.dtb.data_misses                          0                       # DTB misses
system.cpu.dtb.data_acv                             0                       # DTB access violations
system.cpu.dtb.data_accesses                       17                       # DTB accesses
system.cpu.itb.fetch_hits                           4                       # ITB hits
system.cpu.itb.fetch_misses                         0                       # ITB misses
system.cpu.itb.fetch_acv                            0                       # ITB acv
system.cpu.itb.fetch_accesses                       4                       # ITB accesses
system.cpu.itb.read_hits                            0                       # DTB read hits
system.cpu.itb.read_misses                          0                       # DTB read misses
system.cpu.itb.read_acv                             0                       # DTB read access violations
system.cpu.itb.read_accesses                        0                       # DTB read accesses
system.cpu.itb.write_hits                           0                       # DTB write hits
system.cpu.itb.write_misses                         0                       # DTB write misses
system.cpu.itb.write_acv                            0                       # DTB write access violations
system.cpu.itb.write_accesses                       0                       # DTB write accesses
system.cpu.itb.data_hits                            0                       # DTB hits
system.cpu.itb.data_misses                          0                       # DTB misses
system.cpu.itb.data_acv                             0                       # DTB access violations
system.cpu.itb.data_accesses                        0                       # DTB accesses
system.cpu.workload.num_syscalls                    0                       # Number of system calls
system.cpu.pwrStateResidencyTicks::ON    1717965990324                       # Cumulative time (in ticks) in various power states
system.cpu.numCycles                             1404                       # number of cpu cycles simulated
system.cpu.numWorkItemsStarted                      0                       # number of work items this cpu started
system.cpu.numWorkItemsCompleted                    0                       # number of work items this cpu completed
system.cpu.fetch.icacheStallCycles                 65                       # Number of cycles fetch is stalled on an Icache miss
system.cpu.fetch.Insts                             17                       # Number of instructions fetch has processed
system.cpu.fetch.Cycles                             3                       # Number of cycles fetch has run and was not squashing or blocked
system.cpu.fetch.SquashCycles                       3                       # Number of cycles fetch has spent squashing
system.cpu.fetch.PendingDrainCycles                 6                       # Number of cycles fetch has spent waiting on pipes to drain
system.cpu.fetch.CacheLines                         4                       # Number of cache lines fetched
system.cpu.fetch.IcacheSquashes                     2                       # Number of outstanding Icache misses that were squashed
system.cpu.fetch.rateDist::samples                 75                       # Number of instructions fetched each cycle (Total)
system.cpu.fetch.rateDist::mean              0.226667                       # Number of instructions fetched each cycle (Total)
system.cpu.fetch.rateDist::stdev             1.300450                       # Number of instructions fetched each cycle (Total)
system.cpu.fetch.rateDist::underflows               0      0.00%      0.00% # Number of instructions fetched each cycle (Total)
system.cpu.fetch.rateDist::0                       72     96.00%     96.00% # Number of instructions fetched each cycle (Total)
system.cpu.fetch.rateDist::1                        1      1.33%     97.33% # Number of instructions fetched each cycle (Total)
system.cpu.fetch.rateDist::2                        0      0.00%     97.33% # Number of instructions fetched each cycle (Total)
system.cpu.fetch.rateDist::3                        0      0.00%     97.33% # Number of instructions fetched each cycle (Total)
system.cpu.fetch.rateDist::4                        0      0.00%     97.33% # Number of instructions fetched each cycle (Total)
system.cpu.fetch.rateDist::5                        0      0.00%     97.33% # Number of instructions fetched each cycle (Total)
system.cpu.fetch.rateDist::6                        0      0.00%     97.33% # Number of instructions fetched each cycle (Total)
system.cpu.fetch.rateDist::7                        0      0.00%     97.33% # Number of instructions fetched each cycle (Total)
system.cpu.fetch.rateDist::8                        2      2.67%    100.00% # Number of instructions fetched each cycle (Total)
system.cpu.fetch.rateDist::overflows                0      0.00%    100.00% # Number of instructions fetched each cycle (Total)
system.cpu.fetch.rateDist::min_value                0                       # Number of instructions fetched each cycle (Total)
[...]
system.switch_cpus_1.iq.rate                 1.162356                       # Inst issue rate
system.switch_cpus_1.iq.fu_busy_cnt          15078641                       # FU busy when requested
system.switch_cpus_1.iq.fu_busy_rate         0.073270                       # FU busy rate (busy events/executed inst)
system.switch_cpus_1.iq.int_inst_queue_reads    237474890                       # Number of integer instruction queue reads
system.switch_cpus_1.iq.int_inst_queue_writes     28241409                       # Number of integer instruction queue writes
system.switch_cpus_1.iq.int_inst_queue_wakeup_accesses     27842745                       # Number of integer instruction queue wakeup accesses
system.switch_cpus_1.iq.fp_inst_queue_reads    366284356                       # Number of floating instruction queue reads
system.switch_cpus_1.iq.fp_inst_queue_writes    173988842                       # Number of floating instruction queue writes
system.switch_cpus_1.iq.fp_inst_queue_wakeup_accesses    172769361                       # Number of floating instruction queue wakeup accesses
system.switch_cpus_1.iq.int_alu_accesses     31687104                       # Number of integer alu accesses
system.switch_cpus_1.iq.fp_alu_accesses     189188332                       # Number of floating point alu accesses
system.switch_cpus_1.iew.lsq.thread0.forwLoads      9191148                       # Number of loads that had data forwarded from stores
system.switch_cpus_1.iew.lsq.thread0.invAddrLoads            0                       # Number of loads ignored due to an invalid address
system.switch_cpus_1.iew.lsq.thread0.squashedLoads       414857                       # Number of loads squashed
system.switch_cpus_1.iew.lsq.thread0.ignoredResponses          370                       # Number of memory responses ignored because the instruction is squashed
system.switch_cpus_1.iew.lsq.thread0.memOrderViolation        20812                       # Number of memory ordering violations
system.switch_cpus_1.iew.lsq.thread0.squashedStores       221441                       # Number of stores squashed
system.switch_cpus_1.iew.lsq.thread0.invAddrSwpfs            0                       # Number of software prefetches ignored due to an invalid address
system.switch_cpus_1.iew.lsq.thread0.blockedLoads            0                       # Number of blocked loads due to partial load-store forwarding
system.switch_cpus_1.iew.lsq.thread0.rescheduledLoads            0                       # Number of loads that were rescheduled
system.switch_cpus_1.iew.lsq.thread0.cacheBlocked      5275551                       # Number of times an access to memory failed due to the cache being blocked
system.switch_cpus_1.iew.iewIdleCycles              0                       # Number of cycles IEW is idle
system.switch_cpus_1.iew.iewSquashCycles        25102                       # Number of cycles IEW is squashing
system.switch_cpus_1.iew.iewBlockCycles      21818065                       # Number of cycles IEW is blocking
system.switch_cpus_1.iew.iewUnblockCycles     34611843                       # Number of cycles IEW is unblocking
system.switch_cpus_1.iew.iewDispatchedInsts    201104800                       # Number of instructions dispatched to IQ
system.switch_cpus_1.iew.iewDispSquashedInsts         2011                       # Number of squashed instructions skipped by dispatch
system.switch_cpus_1.iew.iewDispLoadInsts     82548776                       # Number of dispatched load instructions
system.switch_cpus_1.iew.iewDispStoreInsts     38176197                       # Number of dispatched store instructions
system.switch_cpus_1.iew.iewDispNonSpecInsts            0                       # Number of dispatched non-speculative instructions
system.switch_cpus_1.iew.iewIQFullEvents        18642                       # Number of times the IQ has become full, causing a stall
system.switch_cpus_1.iew.iewLSQFullEvents     34520878                       # Number of times the LSQ has become full, causing a stall
system.switch_cpus_1.iew.memOrderViolationEvents        20812                       # Number of memory order violations
system.switch_cpus_1.iew.predictedTakenIncorrect         1397                       # Number of branches that were predicted taken incorrectly
system.switch_cpus_1.iew.predictedNotTakenIncorrect           68                       # Number of branches that were predicted not taken incorrectly
system.switch_cpus_1.iew.branchMispredicts         1465                       # Number of branch mispredicts detected at execute
system.switch_cpus_1.iew.iewExecutedInsts    205732986                       # Number of executed instructions
system.switch_cpus_1.iew.iewExecLoadInsts     87464421                       # Number of load instructions executed
system.switch_cpus_1.iew.iewExecSquashedInsts        63801                       # Number of squashed instructions skipped in execute
system.switch_cpus_1.iew.exec_swp                   0                       # number of swp insts executed
system.switch_cpus_1.iew.exec_nop                  27                       # number of nop insts executed
system.switch_cpus_1.iew.exec_refs          125515167                       # number of memory reference insts executed
system.switch_cpus_1.iew.exec_branches         171884                       # Number of branches executed
system.switch_cpus_1.iew.exec_stores         38050746                       # Number of stores executed
system.switch_cpus_1.iew.exec_rate           1.161996                       # Inst execution rate
system.switch_cpus_1.iew.wb_sent            200668996                       # cumulative count of insts sent to commit
system.switch_cpus_1.iew.wb_count           200612106                       # cumulative count of insts written-back
system.switch_cpus_1.iew.wb_producers       131398851                       # num instructions producing a value
system.switch_cpus_1.iew.wb_consumers       136787770                       # num instructions consuming a value
system.switch_cpus_1.iew.wb_rate             1.133073                       # insts written-back per cycle
system.switch_cpus_1.iew.wb_fanout           0.960604                       # average fanout of values written-back
system.switch_cpus_1.commit.commitSquashedInsts      1060957                       # The number of squashed insts skipped by commit
system.switch_cpus_1.commit.branchMispredicts         1459                       # The number of times a branch was mispredicted
system.switch_cpus_1.commit.committed_per_cycle::samples    176904239                       # Number of insts commited each cycle
system.switch_cpus_1.commit.committed_per_cycle::mean     1.130555                       # Number of insts commited each cycle
system.switch_cpus_1.commit.committed_per_cycle::stdev     2.561943                       # Number of insts commited each cycle
system.switch_cpus_1.commit.committed_per_cycle::underflows            0      0.00%      0.00% # Number of insts commited each cycle
system.switch_cpus_1.commit.committed_per_cycle::0    142469501     80.53%     80.53% # Number of insts commited each cycle
system.switch_cpus_1.commit.committed_per_cycle::1      2854368      1.61%     82.15% # Number of insts commited each cycle
system.switch_cpus_1.commit.committed_per_cycle::2      3144075      1.78%     83.93% # Number of insts commited each cycle
system.switch_cpus_1.commit.committed_per_cycle::3      2383502      1.35%     85.27% # Number of insts commited each cycle
system.switch_cpus_1.commit.committed_per_cycle::4      2934271      1.66%     86.93% # Number of insts commited each cycle
system.switch_cpus_1.commit.committed_per_cycle::5      2470111      1.40%     88.33% # Number of insts commited each cycle
system.switch_cpus_1.commit.committed_per_cycle::6      1834328      1.04%     89.36% # Number of insts commited each cycle
system.switch_cpus_1.commit.committed_per_cycle::7      1899271      1.07%     90.44% # Number of insts commited each cycle
system.switch_cpus_1.commit.committed_per_cycle::8     16914812      9.56%    100.00% # Number of insts commited each cycle
system.switch_cpus_1.commit.committed_per_cycle::overflows            0      0.00%    100.00% # Number of insts commited each cycle
system.switch_cpus_1.commit.committed_per_cycle::min_value            0                       # Number of insts commited each cycle
system.switch_cpus_1.commit.committed_per_cycle::max_value            8                       # Number of insts commited each cycle
system.switch_cpus_1.commit.committed_per_cycle::total    176904239                       # Number of insts commited each cycle
system.switch_cpus_1.commit.committedInsts    200000024                       # Number of instructions committed
system.switch_cpus_1.commit.committedOps    200000024                       # Number of ops (including micro ops) committed
system.switch_cpus_1.commit.swp_count               0                       # Number of s/w prefetches committed
system.switch_cpus_1.commit.refs            120088640                       # Number of memory references committed
system.switch_cpus_1.commit.loads            82133897                       # Number of loads committed
system.switch_cpus_1.commit.membars                 0                       # Number of memory barriers committed
system.switch_cpus_1.commit.branches           167612                       # Number of branches committed
system.switch_cpus_1.commit.fp_insts        172405126                       # Number of committed floating point instructions.
system.switch_cpus_1.commit.int_insts       135398704                       # Number of committed integer instructions.
system.switch_cpus_1.commit.function_calls            0                       # Number of function calls committed.
system.switch_cpus_1.commit.op_class_0::No_OpClass           18      0.00%      0.00% # Class of committed instruction
system.switch_cpus_1.commit.op_class_0::IntAlu     15310537      7.66%      7.66% # Class of committed instruction
system.switch_cpus_1.commit.op_class_0::IntMult          186      0.00%      7.66% # Class of committed instruction
system.switch_cpus_1.commit.op_class_0::IntDiv            0      0.00%      7.66% # Class of committed instruction
system.switch_cpus_1.commit.op_class_0::FloatAdd     36073856     18.04%     25.69% # Class of committed instruction
system.switch_cpus_1.commit.op_class_0::FloatCmp            0      0.00%     25.69% # Class of committed instruction
system.switch_cpus_1.commit.op_class_0::FloatCvt            0      0.00%     25.69% # Class of committed instruction
system.switch_cpus_1.commit.op_class_0::FloatMult     28449010     14.22%     39.92% # Class of committed instruction
system.switch_cpus_1.commit.op_class_0::FloatMultAcc            0      0.00%     39.92% # Class of committed instruction
system.switch_cpus_1.commit.op_class_0::FloatDiv        77777      0.04%     39.96% # Class of committed instruction
system.switch_cpus_1.commit.op_class_0::FloatMisc            0      0.00%     39.96% # Class of committed instruction
system.switch_cpus_1.commit.op_class_0::FloatSqrt            0      0.00%     39.96% # Class of committed instruction
system.switch_cpus_1.commit.op_class_0::SimdAdd            0      0.00%     39.96% # Class of committed instruction
system.switch_cpus_1.commit.op_class_0::SimdAddAcc            0      0.00%     39.96% # Class of committed instruction
system.switch_cpus_1.commit.op_class_0::SimdAlu            0      0.00%     39.96% # Class of committed instruction
system.switch_cpus_1.commit.op_class_0::SimdCmp            0      0.00%     39.96% # Class of committed instruction
system.switch_cpus_1.commit.op_class_0::SimdCvt            0      0.00%     39.96% # Class of committed instruction
system.switch_cpus_1.commit.op_class_0::SimdMisc            0      0.00%     39.96% # Class of committed instruction
system.switch_cpus_1.commit.op_class_0::SimdMult            0      0.00%     39.96% # Class of committed instruction
system.switch_cpus_1.commit.op_class_0::SimdMultAcc            0      0.00%     39.96% # Class of committed instruction
system.switch_cpus_1.commit.op_class_0::SimdShift            0      0.00%     39.96% # Class of committed instruction
system.switch_cpus_1.commit.op_class_0::SimdShiftAcc            0      0.00%     39.96% # Class of committed instruction
system.switch_cpus_1.commit.op_class_0::SimdSqrt            0      0.00%     39.96% # Class of committed instruction
system.switch_cpus_1.commit.op_class_0::SimdFloatAdd            0      0.00%     39.96% # Class of committed instruction
system.switch_cpus_1.commit.op_class_0::SimdFloatAlu            0      0.00%     39.96% # Class of committed instruction
system.switch_cpus_1.commit.op_class_0::SimdFloatCmp            0      0.00%     39.96% # Class of committed instruction
system.switch_cpus_1.commit.op_class_0::SimdFloatCvt            0      0.00%     39.96% # Class of committed instruction
system.switch_cpus_1.commit.op_class_0::SimdFloatDiv            0      0.00%     39.96% # Class of committed instruction
system.switch_cpus_1.commit.op_class_0::SimdFloatMisc            0      0.00%     39.96% # Class of committed instruction
system.switch_cpus_1.commit.op_class_0::SimdFloatMult            0      0.00%     39.96% # Class of committed instruction
system.switch_cpus_1.commit.op_class_0::SimdFloatMultAcc            0      0.00%     39.96% # Class of committed instruction
system.switch_cpus_1.commit.op_class_0::SimdFloatSqrt            0      0.00%     39.96% # Class of committed instruction
system.switch_cpus_1.commit.op_class_0::MemRead      8202704      4.10%     44.06% # Class of committed instruction
system.switch_cpus_1.commit.op_class_0::MemWrite      4081453      2.04%     46.10% # Class of committed instruction
system.switch_cpus_1.commit.op_class_0::FloatMemRead     73931193     36.97%     83.06% # Class of committed instruction
system.switch_cpus_1.commit.op_class_0::FloatMemWrite     33873290     16.94%    100.00% # Class of committed instruction
system.switch_cpus_1.commit.op_class_0::IprAccess            0      0.00%    100.00% # Class of committed instruction
system.switch_cpus_1.commit.op_class_0::InstPrefetch            0      0.00%    100.00% # Class of committed instruction
system.switch_cpus_1.commit.op_class_0::total    200000024                       # Class of committed instruction
system.switch_cpus_1.commit.bw_lim_events     16914812                       # number cycles where commit BW limit reached
system.switch_cpus_1.rob.rob_reads          360972408                       # The number of ROB reads
system.switch_cpus_1.rob.rob_writes         402269353                       # The number of ROB writes
system.switch_cpus_1.timesIdled                     4                       # Number of times that the entire CPU went into an idle state and unscheduled itself
system.switch_cpus_1.idleCycles                   881                       # Total number of cycles that the CPU has spent unscheduled due to idling
system.switch_cpus_1.committedInsts         200000006                       # Number of Instructions Simulated
system.switch_cpus_1.committedOps           200000006                       # Number of Ops (including micro ops) Simulated
system.switch_cpus_1.cpi                     0.885257                       # CPI: Cycles Per Instruction
system.switch_cpus_1.cpi_total               0.885257                       # CPI: Total CPI of All Threads
system.switch_cpus_1.ipc                     1.129616                       # IPC: Instructions Per Cycle
system.switch_cpus_1.ipc_total               1.129616                       # IPC: Total IPC of All Threads
system.switch_cpus_1.int_regfile_reads      145556370                       # number of integer regfile reads
system.switch_cpus_1.int_regfile_writes      23578428                       # number of integer regfile writes
system.switch_cpus_1.fp_regfile_reads       163400871                       # number of floating regfile reads
system.switch_cpus_1.fp_regfile_writes      138857482                       # number of floating regfile writes
system.tol3bus.snoop_filter.tot_requests      7960190                       # Total number of requests made to the snoop filter.
system.tol3bus.snoop_filter.hit_single_requests      3978156                       # Number of requests hitting in the snoop filter with a single holder of the requested data.
system.tol3bus.snoop_filter.hit_multi_requests            0                       # Number of requests hitting in the snoop filter with multiple (>1) holders of the requested data.
system.tol3bus.snoop_filter.tot_snoops         182765                       # Total number of snoops made to the snoop filter.
system.tol3bus.snoop_filter.hit_single_snoops       182765                       # Number of snoops hitting in the snoop filter with a single holder of the requested data.
system.tol3bus.snoop_filter.hit_multi_snoops            0                       # Number of snoops hitting in the snoop filter with multiple (>1) holders of the requested data.
system.tol3bus.pwrStateResidencyTicks::UNDEFINED 35021343914685                       # Cumulative time (in ticks) in various power states
system.tol3bus.trans_dist::ReadResp           2827187                       # Transaction distribution
system.tol3bus.trans_dist::WritebackDirty      2579596                       # Transaction distribution
system.tol3bus.trans_dist::CleanEvict         4574805                       # Transaction distribution
system.tol3bus.trans_dist::ReadExReq          1154847                       # Transaction distribution
system.tol3bus.trans_dist::ReadExResp         1154847                       # Transaction distribution
system.tol3bus.trans_dist::ReadSharedReq      2827187                       # Transaction distribution
system.tol3bus.pkt_count_system.cpu.l2.mem_side::system.l3.cpu_side     11942224                       # Packet count per connected master and slave (bytes)
system.tol3bus.pkt_size_system.cpu.l2.mem_side::system.l3.cpu_side    350005632                       # Cumulative packet size per connected master and slave (bytes)
system.tol3bus.snoops                         3176245                       # Total snoops (count)
system.tol3bus.snoopTraffic                  69938688                       # Total snoop traffic (bytes)
system.tol3bus.snoop_fanout::samples          7158279                       # Request fanout histogram
system.tol3bus.snoop_fanout::mean            0.025532                       # Request fanout histogram
system.tol3bus.snoop_fanout::stdev           0.157734                       # Request fanout histogram
system.tol3bus.snoop_fanout::underflows             0      0.00%      0.00% # Request fanout histogram
system.tol3bus.snoop_fanout::0                6975514     97.45%     97.45% # Request fanout histogram
system.tol3bus.snoop_fanout::1                 182765      2.55%    100.00% # Request fanout histogram
system.tol3bus.snoop_fanout::overflows              0      0.00%    100.00% # Request fanout histogram
system.tol3bus.snoop_fanout::min_value              0                       # Request fanout histogram
system.tol3bus.snoop_fanout::max_value              1                       # Request fanout histogram
system.tol3bus.snoop_fanout::total            7158279                       # Request fanout histogram
system.tol3bus.reqLayer0.occupancy         3145849002                       # Layer occupancy (ticks)
system.tol3bus.reqLayer0.utilization              0.2                       # Layer utilization (%)
system.tol3bus.respLayer0.occupancy        2652034644                       # Layer occupancy (ticks)
system.tol3bus.respLayer0.utilization             0.2                       # Layer utilization (%)

---------- End Simulation Statistics   ----------
