
---------- Begin Simulation Statistics ----------
sim_seconds                                  2.579686                       # Number of seconds simulated
sim_ticks                                2579685628104                       # Number of ticks simulated
final_tick                               75849839428806                       # Number of ticks from beginning of simulation (restored from checkpoints and never reset)
sim_freq                                 1000000000000                       # Frequency of simulated ticks
host_inst_rate                                 271726                       # Simulator instruction rate (inst/s)
host_op_rate                                   271726                       # Simulator op (including micro ops) rate (op/s)
host_tick_rate                              467312609                       # Simulator tick rate (ticks/s)
host_mem_usage                                2404852                       # Number of bytes of host memory used
host_seconds                                  5520.26                       # Real time elapsed on the host
sim_insts                                  1500000007                       # Number of instructions simulated
sim_ops                                    1500000007                       # Number of ops (including micro ops) simulated
system.voltage_domain.voltage                       1                       # Voltage in Volts
system.clk_domain.clock                          1000                       # Clock period in ticks
system.mem_ctrls0.pwrStateResidencyTicks::UNDEFINED 75849839428806                       # Cumulative time (in ticks) in various power states
system.mem_ctrls0.bytes_read::cpu.inst            128                       # Number of bytes read from this memory
system.mem_ctrls0.bytes_read::cpu.data            192                       # Number of bytes read from this memory
system.mem_ctrls0.bytes_read::switch_cpus.inst        43968                       # Number of bytes read from this memory
system.mem_ctrls0.bytes_read::switch_cpus.data    232711808                       # Number of bytes read from this memory
system.mem_ctrls0.bytes_read::switch_cpus_1.inst        15168                       # Number of bytes read from this memory
system.mem_ctrls0.bytes_read::switch_cpus_1.data    113651328                       # Number of bytes read from this memory
system.mem_ctrls0.bytes_read::total         346422592                       # Number of bytes read from this memory
system.mem_ctrls0.bytes_inst_read::cpu.inst          128                       # Number of instructions bytes read from this memory
system.mem_ctrls0.bytes_inst_read::switch_cpus.inst        43968                       # Number of instructions bytes read from this memory
system.mem_ctrls0.bytes_inst_read::switch_cpus_1.inst        15168                       # Number of instructions bytes read from this memory
system.mem_ctrls0.bytes_inst_read::total        59264                       # Number of instructions bytes read from this memory
system.mem_ctrls0.bytes_written::writebacks    113846016                       # Number of bytes written to this memory
system.mem_ctrls0.bytes_written::total      113846016                       # Number of bytes written to this memory
system.mem_ctrls0.num_reads::cpu.inst               2                       # Number of read requests responded to by this memory
system.mem_ctrls0.num_reads::cpu.data               3                       # Number of read requests responded to by this memory
system.mem_ctrls0.num_reads::switch_cpus.inst          687                       # Number of read requests responded to by this memory
system.mem_ctrls0.num_reads::switch_cpus.data      3636122                       # Number of read requests responded to by this memory
system.mem_ctrls0.num_reads::switch_cpus_1.inst          237                       # Number of read requests responded to by this memory
system.mem_ctrls0.num_reads::switch_cpus_1.data      1775802                       # Number of read requests responded to by this memory
system.mem_ctrls0.num_reads::total            5412853                       # Number of read requests responded to by this memory
system.mem_ctrls0.num_writes::writebacks      1778844                       # Number of write requests responded to by this memory
system.mem_ctrls0.num_writes::total           1778844                       # Number of write requests responded to by this memory
system.mem_ctrls0.bw_read::cpu.inst                50                       # Total read bandwidth from this memory (bytes/s)
system.mem_ctrls0.bw_read::cpu.data                74                       # Total read bandwidth from this memory (bytes/s)
system.mem_ctrls0.bw_read::switch_cpus.inst        17044                       # Total read bandwidth from this memory (bytes/s)
system.mem_ctrls0.bw_read::switch_cpus.data     90209367                       # Total read bandwidth from this memory (bytes/s)
system.mem_ctrls0.bw_read::switch_cpus_1.inst         5880                       # Total read bandwidth from this memory (bytes/s)
system.mem_ctrls0.bw_read::switch_cpus_1.data     44056271                       # Total read bandwidth from this memory (bytes/s)
system.mem_ctrls0.bw_read::total            134288685                       # Total read bandwidth from this memory (bytes/s)
system.mem_ctrls0.bw_inst_read::cpu.inst           50                       # Instruction read bandwidth from this memory (bytes/s)
system.mem_ctrls0.bw_inst_read::switch_cpus.inst        17044                       # Instruction read bandwidth from this memory (bytes/s)
system.mem_ctrls0.bw_inst_read::switch_cpus_1.inst         5880                       # Instruction read bandwidth from this memory (bytes/s)
system.mem_ctrls0.bw_inst_read::total           22973                       # Instruction read bandwidth from this memory (bytes/s)
system.mem_ctrls0.bw_write::writebacks       44131740                       # Write bandwidth from this memory (bytes/s)
system.mem_ctrls0.bw_write::total            44131740                       # Write bandwidth from this memory (bytes/s)
system.mem_ctrls0.bw_total::writebacks       44131740                       # Total bandwidth to/from this memory (bytes/s)
system.mem_ctrls0.bw_total::cpu.inst               50                       # Total bandwidth to/from this memory (bytes/s)
system.mem_ctrls0.bw_total::cpu.data               74                       # Total bandwidth to/from this memory (bytes/s)
system.mem_ctrls0.bw_total::switch_cpus.inst        17044                       # Total bandwidth to/from this memory (bytes/s)
system.mem_ctrls0.bw_total::switch_cpus.data     90209367                       # Total bandwidth to/from this memory (bytes/s)
system.mem_ctrls0.bw_total::switch_cpus_1.inst         5880                       # Total bandwidth to/from this memory (bytes/s)
system.mem_ctrls0.bw_total::switch_cpus_1.data     44056271                       # Total bandwidth to/from this memory (bytes/s)
system.mem_ctrls0.bw_total::total           178420426                       # Total bandwidth to/from this memory (bytes/s)
system.mem_ctrls0.readReqs                    5412853                       # Number of read requests accepted
system.mem_ctrls0.writeReqs                   1778844                       # Number of write requests accepted
system.mem_ctrls0.readBursts                  5412853                       # Number of DRAM read bursts, including those serviced by the write queue
system.mem_ctrls0.writeBursts                 1778844                       # Number of DRAM write bursts, including those merged in the write queue
system.mem_ctrls0.bytesReadDRAM             346393024                       # Total number of bytes read from DRAM
system.mem_ctrls0.bytesReadWrQ                  29568                       # Total number of bytes read from write queue
system.mem_ctrls0.bytesWritten              113843968                       # Total number of bytes written to DRAM
system.mem_ctrls0.bytesReadSys              346422592                       # Total read bytes from the system interface side
system.mem_ctrls0.bytesWrittenSys           113846016                       # Total written bytes from the system interface side
system.mem_ctrls0.servicedByWrQ                   462                       # Number of DRAM read bursts serviced by the write queue
system.mem_ctrls0.mergedWrBursts                    0                       # Number of DRAM write bursts merged with an existing one
system.mem_ctrls0.neitherReadNorWriteReqs            0                       # Number of requests that are neither read nor write
system.mem_ctrls0.perBankRdBursts::0           344636                       # Per bank write bursts
system.mem_ctrls0.perBankRdBursts::1           340036                       # Per bank write bursts
system.mem_ctrls0.perBankRdBursts::2           336794                       # Per bank write bursts
system.mem_ctrls0.perBankRdBursts::3           337380                       # Per bank write bursts
system.mem_ctrls0.perBankRdBursts::4           338177                       # Per bank write bursts
system.mem_ctrls0.perBankRdBursts::5           339816                       # Per bank write bursts
system.mem_ctrls0.perBankRdBursts::6           339204                       # Per bank write bursts
system.mem_ctrls0.perBankRdBursts::7           341341                       # Per bank write bursts
system.mem_ctrls0.perBankRdBursts::8           342674                       # Per bank write bursts
system.mem_ctrls0.perBankRdBursts::9           338573                       # Per bank write bursts
system.mem_ctrls0.perBankRdBursts::10          333253                       # Per bank write bursts
system.mem_ctrls0.perBankRdBursts::11          330386                       # Per bank write bursts
system.mem_ctrls0.perBankRdBursts::12          331759                       # Per bank write bursts
system.mem_ctrls0.perBankRdBursts::13          336494                       # Per bank write bursts
system.mem_ctrls0.perBankRdBursts::14          340591                       # Per bank write bursts
system.mem_ctrls0.perBankRdBursts::15          341277                       # Per bank write bursts
system.mem_ctrls0.perBankWrBursts::0           113892                       # Per bank write bursts
system.mem_ctrls0.perBankWrBursts::1           111762                       # Per bank write bursts
system.mem_ctrls0.perBankWrBursts::2           111475                       # Per bank write bursts
system.mem_ctrls0.perBankWrBursts::3           112477                       # Per bank write bursts
system.mem_ctrls0.perBankWrBursts::4           112958                       # Per bank write bursts
system.mem_ctrls0.perBankWrBursts::5           112867                       # Per bank write bursts
system.mem_ctrls0.perBankWrBursts::6           110163                       # Per bank write bursts
system.mem_ctrls0.perBankWrBursts::7           109503                       # Per bank write bursts
system.mem_ctrls0.perBankWrBursts::8           110027                       # Per bank write bursts
system.mem_ctrls0.perBankWrBursts::9           110035                       # Per bank write bursts
system.mem_ctrls0.perBankWrBursts::10          110156                       # Per bank write bursts
system.mem_ctrls0.perBankWrBursts::11          109135                       # Per bank write bursts
system.mem_ctrls0.perBankWrBursts::12          109176                       # Per bank write bursts
system.mem_ctrls0.perBankWrBursts::13          110302                       # Per bank write bursts
system.mem_ctrls0.perBankWrBursts::14          112369                       # Per bank write bursts
system.mem_ctrls0.perBankWrBursts::15          112515                       # Per bank write bursts
system.mem_ctrls0.numRdRetry                        0                       # Number of times read queue was full causing retry
system.mem_ctrls0.numWrRetry                        0                       # Number of times write queue was full causing retry
system.mem_ctrls0.totGap                 2579685291441                       # Total gap between requests
system.mem_ctrls0.readPktSize::0                    0                       # Read request sizes (log2)
system.mem_ctrls0.readPktSize::1                    0                       # Read request sizes (log2)
system.mem_ctrls0.readPktSize::2                    0                       # Read request sizes (log2)
system.mem_ctrls0.readPktSize::3                    0                       # Read request sizes (log2)
system.mem_ctrls0.readPktSize::4                    0                       # Read request sizes (log2)
system.mem_ctrls0.readPktSize::5                    0                       # Read request sizes (log2)
system.mem_ctrls0.readPktSize::6              5412853                       # Read request sizes (log2)
system.mem_ctrls0.writePktSize::0                   0                       # Write request sizes (log2)
system.mem_ctrls0.writePktSize::1                   0                       # Write request sizes (log2)
system.mem_ctrls0.writePktSize::2                   0                       # Write request sizes (log2)
system.mem_ctrls0.writePktSize::3                   0                       # Write request sizes (log2)
system.mem_ctrls0.writePktSize::4                   0                       # Write request sizes (log2)
system.mem_ctrls0.writePktSize::5                   0                       # Write request sizes (log2)
system.mem_ctrls0.writePktSize::6             1778844                       # Write request sizes (log2)
system.mem_ctrls0.rdQLenPdf::0                4948730                       # What read queue length does an incoming req see
system.mem_ctrls0.rdQLenPdf::1                 388760                       # What read queue length does an incoming req see
system.mem_ctrls0.rdQLenPdf::2                  69331                       # What read queue length does an incoming req see
system.mem_ctrls0.rdQLenPdf::3                   5568                       # What read queue length does an incoming req see
system.mem_ctrls0.rdQLenPdf::4                      2                       # What read queue length does an incoming req see
system.mem_ctrls0.rdQLenPdf::5                      0                       # What read queue length does an incoming req see
system.mem_ctrls0.rdQLenPdf::6                      0                       # What read queue length does an incoming req see
system.mem_ctrls0.rdQLenPdf::7                      0                       # What read queue length does an incoming req see
system.mem_ctrls0.rdQLenPdf::8                      0                       # What read queue length does an incoming req see
system.mem_ctrls0.rdQLenPdf::9                      0                       # What read queue length does an incoming req see
system.mem_ctrls0.rdQLenPdf::10                     0                       # What read queue length does an incoming req see
system.mem_ctrls0.rdQLenPdf::11                     0                       # What read queue length does an incoming req see
system.mem_ctrls0.rdQLenPdf::12                     0                       # What read queue length does an incoming req see
system.mem_ctrls0.rdQLenPdf::13                     0                       # What read queue length does an incoming req see
system.mem_ctrls0.rdQLenPdf::14                     0                       # What read queue length does an incoming req see
system.mem_ctrls0.rdQLenPdf::15                     0                       # What read queue length does an incoming req see
system.mem_ctrls0.rdQLenPdf::16                     0                       # What read queue length does an incoming req see
system.mem_ctrls0.rdQLenPdf::17                     0                       # What read queue length does an incoming req see
system.mem_ctrls0.rdQLenPdf::18                     0                       # What read queue length does an incoming req see
system.mem_ctrls0.rdQLenPdf::19                     0                       # What read queue length does an incoming req see
system.mem_ctrls0.rdQLenPdf::20                     0                       # What read queue length does an incoming req see
system.mem_ctrls0.rdQLenPdf::21                     0                       # What read queue length does an incoming req see
system.mem_ctrls0.rdQLenPdf::22                     0                       # What read queue length does an incoming req see
system.mem_ctrls0.rdQLenPdf::23                     0                       # What read queue length does an incoming req see
system.mem_ctrls0.rdQLenPdf::24                     0                       # What read queue length does an incoming req see
system.mem_ctrls0.rdQLenPdf::25                     0                       # What read queue length does an incoming req see
system.mem_ctrls0.rdQLenPdf::26                     0                       # What read queue length does an incoming req see
system.mem_ctrls0.rdQLenPdf::27                     0                       # What read queue length does an incoming req see
system.mem_ctrls0.rdQLenPdf::28                     0                       # What read queue length does an incoming req see
system.mem_ctrls0.rdQLenPdf::29                     0                       # What read queue length does an incoming req see
system.mem_ctrls0.rdQLenPdf::30                     0                       # What read queue length does an incoming req see
system.mem_ctrls0.rdQLenPdf::31                     0                       # What read queue length does an incoming req see
system.mem_ctrls0.wrQLenPdf::0                      2                       # What write queue length does an incoming req see
system.mem_ctrls0.wrQLenPdf::1                      2                       # What write queue length does an incoming req see
system.mem_ctrls0.wrQLenPdf::2                      2                       # What write queue length does an incoming req see
system.mem_ctrls0.wrQLenPdf::3                      2                       # What write queue length does an incoming req see
system.mem_ctrls0.wrQLenPdf::4                      2                       # What write queue length does an incoming req see
system.mem_ctrls0.wrQLenPdf::5                      2                       # What write queue length does an incoming req see
system.mem_ctrls0.wrQLenPdf::6                      2                       # What write queue length does an incoming req see
system.mem_ctrls0.wrQLenPdf::7                      2                       # What write queue length does an incoming req see
system.mem_ctrls0.wrQLenPdf::8                      2                       # What write queue length does an incoming req see
system.mem_ctrls0.wrQLenPdf::9                      2                       # What write queue length does an incoming req see
system.mem_ctrls0.wrQLenPdf::10                     2                       # What write queue length does an incoming req see
system.mem_ctrls0.wrQLenPdf::11                     2                       # What write queue length does an incoming req see
system.mem_ctrls0.wrQLenPdf::12                     2                       # What write queue length does an incoming req see
system.mem_ctrls0.wrQLenPdf::13                     2                       # What write queue length does an incoming req see
system.mem_ctrls0.wrQLenPdf::14                     2                       # What write queue length does an incoming req see
system.mem_ctrls0.wrQLenPdf::15                 73602                       # What write queue length does an incoming req see
system.mem_ctrls0.wrQLenPdf::16                 76309                       # What write queue length does an incoming req see
system.mem_ctrls0.wrQLenPdf::17                 98330                       # What write queue length does an incoming req see
system.mem_ctrls0.wrQLenPdf::18                101366                       # What write queue length does an incoming req see
system.mem_ctrls0.wrQLenPdf::19                101792                       # What write queue length does an incoming req see
system.mem_ctrls0.wrQLenPdf::20                101901                       # What write queue length does an incoming req see
system.mem_ctrls0.wrQLenPdf::21                102202                       # What write queue length does an incoming req see
system.mem_ctrls0.wrQLenPdf::22                102569                       # What write queue length does an incoming req see
system.mem_ctrls0.wrQLenPdf::23                102435                       # What write queue length does an incoming req see
system.mem_ctrls0.wrQLenPdf::24                102057                       # What write queue length does an incoming req see
system.mem_ctrls0.wrQLenPdf::25                101962                       # What write queue length does an incoming req see
system.mem_ctrls0.wrQLenPdf::26                101945                       # What write queue length does an incoming req see
system.mem_ctrls0.wrQLenPdf::27                101938                       # What write queue length does an incoming req see
system.mem_ctrls0.wrQLenPdf::28                102000                       # What write queue length does an incoming req see
system.mem_ctrls0.wrQLenPdf::29                102163                       # What write queue length does an incoming req see
system.mem_ctrls0.wrQLenPdf::30                102897                       # What write queue length does an incoming req see
system.mem_ctrls0.wrQLenPdf::31                101593                       # What write queue length does an incoming req see
system.mem_ctrls0.wrQLenPdf::32                101524                       # What write queue length does an incoming req see
system.mem_ctrls0.wrQLenPdf::33                   214                       # What write queue length does an incoming req see
system.mem_ctrls0.wrQLenPdf::34                    14                       # What write queue length does an incoming req see
system.mem_ctrls0.wrQLenPdf::35                     1                       # What write queue length does an incoming req see
system.mem_ctrls0.wrQLenPdf::36                     0                       # What write queue length does an incoming req see
system.mem_ctrls0.wrQLenPdf::37                     0                       # What write queue length does an incoming req see
system.mem_ctrls0.wrQLenPdf::38                     0                       # What write queue length does an incoming req see
system.mem_ctrls0.wrQLenPdf::39                     0                       # What write queue length does an incoming req see
system.mem_ctrls0.wrQLenPdf::40                     0                       # What write queue length does an incoming req see
system.mem_ctrls0.wrQLenPdf::41                     0                       # What write queue length does an incoming req see
system.mem_ctrls0.wrQLenPdf::42                     0                       # What write queue length does an incoming req see
system.mem_ctrls0.wrQLenPdf::43                     0                       # What write queue length does an incoming req see
system.mem_ctrls0.wrQLenPdf::44                     0                       # What write queue length does an incoming req see
system.mem_ctrls0.wrQLenPdf::45                     0                       # What write queue length does an incoming req see
system.mem_ctrls0.wrQLenPdf::46                     0                       # What write queue length does an incoming req see
system.mem_ctrls0.wrQLenPdf::47                     0                       # What write queue length does an incoming req see
system.mem_ctrls0.wrQLenPdf::48                     0                       # What write queue length does an incoming req see
system.mem_ctrls0.wrQLenPdf::49                     0                       # What write queue length does an incoming req see
system.mem_ctrls0.wrQLenPdf::50                     0                       # What write queue length does an incoming req see
system.mem_ctrls0.wrQLenPdf::51                     0                       # What write queue length does an incoming req see
system.mem_ctrls0.wrQLenPdf::52                     0                       # What write queue length does an incoming req see
system.mem_ctrls0.wrQLenPdf::53                     0                       # What write queue length does an incoming req see
system.mem_ctrls0.wrQLenPdf::54                     0                       # What write queue length does an incoming req see
system.mem_ctrls0.wrQLenPdf::55                     0                       # What write queue length does an incoming req see
system.mem_ctrls0.wrQLenPdf::56                     0                       # What write queue length does an incoming req see
system.mem_ctrls0.wrQLenPdf::57                     0                       # What write queue length does an incoming req see
system.mem_ctrls0.wrQLenPdf::58                     0                       # What write queue length does an incoming req see
system.mem_ctrls0.wrQLenPdf::59                     0                       # What write queue length does an incoming req see
system.mem_ctrls0.wrQLenPdf::60                     0                       # What write queue length does an incoming req see
system.mem_ctrls0.wrQLenPdf::61                     0                       # What write queue length does an incoming req see
system.mem_ctrls0.wrQLenPdf::62                     0                       # What write queue length does an incoming req see
system.mem_ctrls0.wrQLenPdf::63                     0                       # What write queue length does an incoming req see
system.mem_ctrls0.bytesPerActivate::samples      2923734                       # Bytes accessed per row activation
system.mem_ctrls0.bytesPerActivate::mean   157.412777                       # Bytes accessed per row activation
system.mem_ctrls0.bytesPerActivate::gmean   116.582666                       # Bytes accessed per row activation
system.mem_ctrls0.bytesPerActivate::stdev   155.782729                       # Bytes accessed per row activation
system.mem_ctrls0.bytesPerActivate::0-127      1367127     46.76%     46.76% # Bytes accessed per row activation
system.mem_ctrls0.bytesPerActivate::128-255      1027413     35.14%     81.90% # Bytes accessed per row activation
system.mem_ctrls0.bytesPerActivate::256-383       185315      6.34%     88.24% # Bytes accessed per row activation
system.mem_ctrls0.bytesPerActivate::384-511       159114      5.44%     93.68% # Bytes accessed per row activation
system.mem_ctrls0.bytesPerActivate::512-639       126660      4.33%     98.01% # Bytes accessed per row activation
system.mem_ctrls0.bytesPerActivate::640-767        23364      0.80%     98.81% # Bytes accessed per row activation
system.mem_ctrls0.bytesPerActivate::768-895         9386      0.32%     99.13% # Bytes accessed per row activation
system.mem_ctrls0.bytesPerActivate::896-1023         7171      0.25%     99.38% # Bytes accessed per row activation
system.mem_ctrls0.bytesPerActivate::1024-1151        18184      0.62%    100.00% # Bytes accessed per row activation
system.mem_ctrls0.bytesPerActivate::total      2923734                       # Bytes accessed per row activation
system.mem_ctrls0.rdPerTurnAround::samples       101292                       # Reads before turning the bus around for writes
system.mem_ctrls0.rdPerTurnAround::mean     53.432581                       # Reads before turning the bus around for writes
system.mem_ctrls0.rdPerTurnAround::gmean    46.396536                       # Reads before turning the bus around for writes
system.mem_ctrls0.rdPerTurnAround::stdev   104.064289                       # Reads before turning the bus around for writes
system.mem_ctrls0.rdPerTurnAround::0-1023       101291    100.00%    100.00% # Reads before turning the bus around for writes
system.mem_ctrls0.rdPerTurnAround::30720-31743            1      0.00%    100.00% # Reads before turning the bus around for writes
system.mem_ctrls0.rdPerTurnAround::total       101292                       # Reads before turning the bus around for writes
system.mem_ctrls0.wrPerTurnAround::samples       101292                       # Writes before turning the bus around for reads
system.mem_ctrls0.wrPerTurnAround::mean     17.561229                       # Writes before turning the bus around for reads
system.mem_ctrls0.wrPerTurnAround::gmean    17.534881                       # Writes before turning the bus around for reads
system.mem_ctrls0.wrPerTurnAround::stdev     0.949107                       # Writes before turning the bus around for reads
system.mem_ctrls0.wrPerTurnAround::16           24768     24.45%     24.45% # Writes before turning the bus around for reads
system.mem_ctrls0.wrPerTurnAround::17            2365      2.33%     26.79% # Writes before turning the bus around for reads
system.mem_ctrls0.wrPerTurnAround::18           67542     66.68%     93.47% # Writes before turning the bus around for reads
system.mem_ctrls0.wrPerTurnAround::19            5855      5.78%     99.25% # Writes before turning the bus around for reads
system.mem_ctrls0.wrPerTurnAround::20             691      0.68%     99.93% # Writes before turning the bus around for reads
system.mem_ctrls0.wrPerTurnAround::21              64      0.06%     99.99% # Writes before turning the bus around for reads
system.mem_ctrls0.wrPerTurnAround::22               7      0.01%    100.00% # Writes before turning the bus around for reads
system.mem_ctrls0.wrPerTurnAround::total       101292                       # Writes before turning the bus around for reads
system.mem_ctrls0.totQLat                117339503698                       # Total ticks spent queuing
system.mem_ctrls0.totMemAccLat           218821834948                       # Total ticks spent from burst creation until serviced by the DRAM
system.mem_ctrls0.totBusLat               27061955000                       # Total ticks spent in databus transfers
system.mem_ctrls0.avgQLat                    21679.79                       # Average queueing delay per DRAM burst
system.mem_ctrls0.avgBusLat                   5000.00                       # Average bus latency per DRAM burst
system.mem_ctrls0.avgMemAccLat               40429.79                       # Average memory access latency per DRAM burst
system.mem_ctrls0.avgRdBW                      134.28                       # Average DRAM read bandwidth in MiByte/s
system.mem_ctrls0.avgWrBW                       44.13                       # Average achieved write bandwidth in MiByte/s
system.mem_ctrls0.avgRdBWSys                   134.29                       # Average system read bandwidth in MiByte/s
system.mem_ctrls0.avgWrBWSys                    44.13                       # Average system write bandwidth in MiByte/s
system.mem_ctrls0.peakBW                     12800.00                       # Theoretical peak bandwidth in MiByte/s
system.mem_ctrls0.busUtil                        1.39                       # Data bus utilization in percentage
system.mem_ctrls0.busUtilRead                    1.05                       # Data bus utilization in percentage for reads
system.mem_ctrls0.busUtilWrite                   0.34                       # Data bus utilization in percentage for writes
system.mem_ctrls0.avgRdQLen                      1.04                       # Average read queue length when enqueuing
system.mem_ctrls0.avgWrQLen                     24.42                       # Average write queue length when enqueuing
system.mem_ctrls0.readRowHits                 3348904                       # Number of row buffer hits during reads
system.mem_ctrls0.writeRowHits                 918556                       # Number of row buffer hits during writes
system.mem_ctrls0.readRowHitRate                61.87                       # Row buffer hit rate for reads
system.mem_ctrls0.writeRowHitRate               51.64                       # Row buffer hit rate for writes
system.mem_ctrls0.avgGap                    358703.28                       # Average gap between requests
system.mem_ctrls0.pageHitRate                   59.34                       # Row buffer hit rate, read and write combined
system.mem_ctrls0_0.actEnergy             10484961480                       # Energy for activate commands per rank (pJ)
system.mem_ctrls0_0.preEnergy              5572866420                       # Energy for precharge commands per rank (pJ)
system.mem_ctrls0_0.readEnergy            19402121760                       # Energy for read commands per rank (pJ)
system.mem_ctrls0_0.writeEnergy            4672406340                       # Energy for write commands per rank (pJ)
system.mem_ctrls0_0.refreshEnergy        199016129520.000031                       # Energy for refresh commands per rank (pJ)
system.mem_ctrls0_0.actBackEnergy        121739851020                       # Energy for active background per rank (pJ)
system.mem_ctrls0_0.preBackEnergy          6802231680                       # Energy for precharge background per rank (pJ)
system.mem_ctrls0_0.actPowerDownEnergy   778107388170                       # Energy for active power-down per rank (pJ)
system.mem_ctrls0_0.prePowerDownEnergy   147980778240                       # Energy for precharge power-down per rank (pJ)
system.mem_ctrls0_0.selfRefreshEnergy     59814337020                       # Energy for self refresh per rank (pJ)
system.mem_ctrls0_0.totalEnergy          1353636595470                       # Total energy per rank (pJ)
system.mem_ctrls0_0.averagePower           524.729278                       # Core power per rank (mW)
system.mem_ctrls0_0.totalIdleTime        2294913676744                       # Total Idle time Per DRAM Rank
system.mem_ctrls0_0.memoryStateTime::IDLE   7255069229                       # Time in different power states
system.mem_ctrls0_0.memoryStateTime::REF  84310548000                       # Time in different power states
system.mem_ctrls0_0.memoryStateTime::SREF 203158913595                       # Time in different power states
system.mem_ctrls0_0.memoryStateTime::PRE_PDN 385367350844                       # Time in different power states
system.mem_ctrls0_0.memoryStateTime::ACT 193206199374                       # Time in different power states
system.mem_ctrls0_0.memoryStateTime::ACT_PDN 1706387547062                       # Time in different power states
system.mem_ctrls0_1.actEnergy             10390563540                       # Energy for activate commands per rank (pJ)
system.mem_ctrls0_1.preEnergy              5522704110                       # Energy for precharge commands per rank (pJ)
system.mem_ctrls0_1.readEnergy            19242349980                       # Energy for read commands per rank (pJ)
system.mem_ctrls0_1.writeEnergy            4612992300                       # Energy for write commands per rank (pJ)
system.mem_ctrls0_1.refreshEnergy        198242297760.000031                       # Energy for refresh commands per rank (pJ)
system.mem_ctrls0_1.actBackEnergy        121834999410                       # Energy for active background per rank (pJ)
system.mem_ctrls0_1.preBackEnergy          6838710720                       # Energy for precharge background per rank (pJ)
system.mem_ctrls0_1.actPowerDownEnergy   770249524920                       # Energy for active power-down per rank (pJ)
system.mem_ctrls0_1.prePowerDownEnergy   149399111520                       # Energy for precharge power-down per rank (pJ)
system.mem_ctrls0_1.selfRefreshEnergy     63251187705                       # Energy for self refresh per rank (pJ)
system.mem_ctrls0_1.totalEnergy          1349622748305                       # Total energy per rank (pJ)
system.mem_ctrls0_1.averagePower           523.173338                       # Core power per rank (mW)
system.mem_ctrls0_1.totalIdleTime        2294620270337                       # Total Idle time Per DRAM Rank
system.mem_ctrls0_1.memoryStateTime::IDLE   7401248031                       # Time in different power states
system.mem_ctrls0_1.memoryStateTime::REF  83986196000                       # Time in different power states
system.mem_ctrls0_1.memoryStateTime::SREF 216405299311                       # Time in different power states
system.mem_ctrls0_1.memoryStateTime::PRE_PDN 389060655589                       # Time in different power states
system.mem_ctrls0_1.memoryStateTime::ACT 193677770654                       # Time in different power states
system.mem_ctrls0_1.memoryStateTime::ACT_PDN 1689154458519                       # Time in different power states
system.mem_ctrls1.pwrStateResidencyTicks::UNDEFINED 75849839428806                       # Cumulative time (in ticks) in various power states
system.mem_ctrls1.bytes_read::cpu.inst            128                       # Number of bytes read from this memory
system.mem_ctrls1.bytes_read::cpu.data            192                       # Number of bytes read from this memory
system.mem_ctrls1.bytes_read::switch_cpus.inst        43840                       # Number of bytes read from this memory
system.mem_ctrls1.bytes_read::switch_cpus.data    232703360                       # Number of bytes read from this memory
system.mem_ctrls1.bytes_read::switch_cpus_1.inst        14784                       # Number of bytes read from this memory
system.mem_ctrls1.bytes_read::switch_cpus_1.data    113659776                       # Number of bytes read from this memory
system.mem_ctrls1.bytes_read::total         346422080                       # Number of bytes read from this memory
system.mem_ctrls1.bytes_inst_read::cpu.inst          128                       # Number of instructions bytes read from this memory
system.mem_ctrls1.bytes_inst_read::switch_cpus.inst        43840                       # Number of instructions bytes read from this memory
system.mem_ctrls1.bytes_inst_read::switch_cpus_1.inst        14784                       # Number of instructions bytes read from this memory
system.mem_ctrls1.bytes_inst_read::total        58752                       # Number of instructions bytes read from this memory
system.mem_ctrls1.bytes_written::writebacks    113836672                       # Number of bytes written to this memory
system.mem_ctrls1.bytes_written::total      113836672                       # Number of bytes written to this memory
system.mem_ctrls1.num_reads::cpu.inst               2                       # Number of read requests responded to by this memory
system.mem_ctrls1.num_reads::cpu.data               3                       # Number of read requests responded to by this memory
system.mem_ctrls1.num_reads::switch_cpus.inst          685                       # Number of read requests responded to by this memory
system.mem_ctrls1.num_reads::switch_cpus.data      3635990                       # Number of read requests responded to by this memory
system.mem_ctrls1.num_reads::switch_cpus_1.inst          231                       # Number of read requests responded to by this memory
system.mem_ctrls1.num_reads::switch_cpus_1.data      1775934                       # Number of read requests responded to by this memory
system.mem_ctrls1.num_reads::total            5412845                       # Number of read requests responded to by this memory
system.mem_ctrls1.num_writes::writebacks      1778698                       # Number of write requests responded to by this memory
system.mem_ctrls1.num_writes::total           1778698                       # Number of write requests responded to by this memory
system.mem_ctrls1.bw_read::cpu.inst                50                       # Total read bandwidth from this memory (bytes/s)
system.mem_ctrls1.bw_read::cpu.data                74                       # Total read bandwidth from this memory (bytes/s)
system.mem_ctrls1.bw_read::switch_cpus.inst        16994                       # Total read bandwidth from this memory (bytes/s)
system.mem_ctrls1.bw_read::switch_cpus.data     90206092                       # Total read bandwidth from this memory (bytes/s)
system.mem_ctrls1.bw_read::switch_cpus_1.inst         5731                       # Total read bandwidth from this memory (bytes/s)
system.mem_ctrls1.bw_read::switch_cpus_1.data     44059545                       # Total read bandwidth from this memory (bytes/s)
system.mem_ctrls1.bw_read::total            134288487                       # Total read bandwidth from this memory (bytes/s)
system.mem_ctrls1.bw_inst_read::cpu.inst           50                       # Instruction read bandwidth from this memory (bytes/s)
system.mem_ctrls1.bw_inst_read::switch_cpus.inst        16994                       # Instruction read bandwidth from this memory (bytes/s)
system.mem_ctrls1.bw_inst_read::switch_cpus_1.inst         5731                       # Instruction read bandwidth from this memory (bytes/s)
system.mem_ctrls1.bw_inst_read::total           22775                       # Instruction read bandwidth from this memory (bytes/s)
system.mem_ctrls1.bw_write::writebacks       44128118                       # Write bandwidth from this memory (bytes/s)
system.mem_ctrls1.bw_write::total            44128118                       # Write bandwidth from this memory (bytes/s)
system.mem_ctrls1.bw_total::writebacks       44128118                       # Total bandwidth to/from this memory (bytes/s)
system.mem_ctrls1.bw_total::cpu.inst               50                       # Total bandwidth to/from this memory (bytes/s)
system.mem_ctrls1.bw_total::cpu.data               74                       # Total bandwidth to/from this memory (bytes/s)
system.mem_ctrls1.bw_total::switch_cpus.inst        16994                       # Total bandwidth to/from this memory (bytes/s)
system.mem_ctrls1.bw_total::switch_cpus.data     90206092                       # Total bandwidth to/from this memory (bytes/s)
system.mem_ctrls1.bw_total::switch_cpus_1.inst         5731                       # Total bandwidth to/from this memory (bytes/s)
system.mem_ctrls1.bw_total::switch_cpus_1.data     44059545                       # Total bandwidth to/from this memory (bytes/s)
system.mem_ctrls1.bw_total::total           178416605                       # Total bandwidth to/from this memory (bytes/s)
system.mem_ctrls1.readReqs                    5412847                       # Number of read requests accepted
system.mem_ctrls1.writeReqs                   1778698                       # Number of write requests accepted
system.mem_ctrls1.readBursts                  5412847                       # Number of DRAM read bursts, including those serviced by the write queue
system.mem_ctrls1.writeBursts                 1778698                       # Number of DRAM write bursts, including those merged in the write queue
system.mem_ctrls1.bytesReadDRAM             346392512                       # Total number of bytes read from DRAM
system.mem_ctrls1.bytesReadWrQ                  29696                       # Total number of bytes read from write queue
system.mem_ctrls1.bytesWritten              113834624                       # Total number of bytes written to DRAM
system.mem_ctrls1.bytesReadSys              346422208                       # Total read bytes from the system interface side
system.mem_ctrls1.bytesWrittenSys           113836672                       # Total written bytes from the system interface side
system.mem_ctrls1.servicedByWrQ                   464                       # Number of DRAM read bursts serviced by the write queue
system.mem_ctrls1.mergedWrBursts                    0                       # Number of DRAM write bursts merged with an existing one
system.mem_ctrls1.neitherReadNorWriteReqs            0                       # Number of requests that are neither read nor write
system.mem_ctrls1.perBankRdBursts::0           344745                       # Per bank write bursts
system.mem_ctrls1.perBankRdBursts::1           339486                       # Per bank write bursts
system.mem_ctrls1.perBankRdBursts::2           337002                       # Per bank write bursts
system.mem_ctrls1.perBankRdBursts::3           337694                       # Per bank write bursts
system.mem_ctrls1.perBankRdBursts::4           338012                       # Per bank write bursts
system.mem_ctrls1.perBankRdBursts::5           339899                       # Per bank write bursts
system.mem_ctrls1.perBankRdBursts::6           339132                       # Per bank write bursts
system.mem_ctrls1.perBankRdBursts::7           341112                       # Per bank write bursts
system.mem_ctrls1.perBankRdBursts::8           342577                       # Per bank write bursts
system.mem_ctrls1.perBankRdBursts::9           338942                       # Per bank write bursts
system.mem_ctrls1.perBankRdBursts::10          332996                       # Per bank write bursts
system.mem_ctrls1.perBankRdBursts::11          330573                       # Per bank write bursts
system.mem_ctrls1.perBankRdBursts::12          331685                       # Per bank write bursts
system.mem_ctrls1.perBankRdBursts::13          336449                       # Per bank write bursts
system.mem_ctrls1.perBankRdBursts::14          340731                       # Per bank write bursts
system.mem_ctrls1.perBankRdBursts::15          341348                       # Per bank write bursts
system.mem_ctrls1.perBankWrBursts::0           113876                       # Per bank write bursts
system.mem_ctrls1.perBankWrBursts::1           111725                       # Per bank write bursts
system.mem_ctrls1.perBankWrBursts::2           111404                       # Per bank write bursts
system.mem_ctrls1.perBankWrBursts::3           112617                       # Per bank write bursts
system.mem_ctrls1.perBankWrBursts::4           112941                       # Per bank write bursts
system.mem_ctrls1.perBankWrBursts::5           112872                       # Per bank write bursts
system.mem_ctrls1.perBankWrBursts::6           110056                       # Per bank write bursts
system.mem_ctrls1.perBankWrBursts::7           109425                       # Per bank write bursts
system.mem_ctrls1.perBankWrBursts::8           109894                       # Per bank write bursts
system.mem_ctrls1.perBankWrBursts::9           110078                       # Per bank write bursts
system.mem_ctrls1.perBankWrBursts::10          110128                       # Per bank write bursts
system.mem_ctrls1.perBankWrBursts::11          109166                       # Per bank write bursts
system.mem_ctrls1.perBankWrBursts::12          109137                       # Per bank write bursts
system.mem_ctrls1.perBankWrBursts::13          110344                       # Per bank write bursts
system.mem_ctrls1.perBankWrBursts::14          112391                       # Per bank write bursts
system.mem_ctrls1.perBankWrBursts::15          112612                       # Per bank write bursts
system.mem_ctrls1.numRdRetry                        0                       # Number of times read queue was full causing retry
system.mem_ctrls1.numWrRetry                        0                       # Number of times write queue was full causing retry
system.mem_ctrls1.totGap                 2579685609456                       # Total gap between requests
system.mem_ctrls1.readPktSize::0                    0                       # Read request sizes (log2)
system.mem_ctrls1.readPktSize::1                    0                       # Read request sizes (log2)
system.mem_ctrls1.readPktSize::2                    0                       # Read request sizes (log2)
system.mem_ctrls1.readPktSize::3                    0                       # Read request sizes (log2)
system.mem_ctrls1.readPktSize::4                    0                       # Read request sizes (log2)
system.mem_ctrls1.readPktSize::5                    0                       # Read request sizes (log2)
system.mem_ctrls1.readPktSize::6              5412847                       # Read request sizes (log2)
system.mem_ctrls1.writePktSize::0                   0                       # Write request sizes (log2)
system.mem_ctrls1.writePktSize::1                   0                       # Write request sizes (log2)
system.mem_ctrls1.writePktSize::2                   0                       # Write request sizes (log2)
system.mem_ctrls1.writePktSize::3                   0                       # Write request sizes (log2)
system.mem_ctrls1.writePktSize::4                   0                       # Write request sizes (log2)
system.mem_ctrls1.writePktSize::5                   0                       # Write request sizes (log2)
system.mem_ctrls1.writePktSize::6             1778698                       # Write request sizes (log2)
system.mem_ctrls1.rdQLenPdf::0                4948222                       # What read queue length does an incoming req see
system.mem_ctrls1.rdQLenPdf::1                 388527                       # What read queue length does an incoming req see
system.mem_ctrls1.rdQLenPdf::2                  69880                       # What read queue length does an incoming req see
system.mem_ctrls1.rdQLenPdf::3                   5754                       # What read queue length does an incoming req see
system.mem_ctrls1.rdQLenPdf::4                      0                       # What read queue length does an incoming req see
system.mem_ctrls1.rdQLenPdf::5                      0                       # What read queue length does an incoming req see
system.mem_ctrls1.rdQLenPdf::6                      0                       # What read queue length does an incoming req see
system.mem_ctrls1.rdQLenPdf::7                      0                       # What read queue length does an incoming req see
system.mem_ctrls1.rdQLenPdf::8                      0                       # What read queue length does an incoming req see
system.mem_ctrls1.rdQLenPdf::9                      0                       # What read queue length does an incoming req see
system.mem_ctrls1.rdQLenPdf::10                     0                       # What read queue length does an incoming req see
system.mem_ctrls1.rdQLenPdf::11                     0                       # What read queue length does an incoming req see
system.mem_ctrls1.rdQLenPdf::12                     0                       # What read queue length does an incoming req see
system.mem_ctrls1.rdQLenPdf::13                     0                       # What read queue length does an incoming req see
system.mem_ctrls1.rdQLenPdf::14                     0                       # What read queue length does an incoming req see
system.mem_ctrls1.rdQLenPdf::15                     0                       # What read queue length does an incoming req see
system.mem_ctrls1.rdQLenPdf::16                     0                       # What read queue length does an incoming req see
system.mem_ctrls1.rdQLenPdf::17                     0                       # What read queue length does an incoming req see
system.mem_ctrls1.rdQLenPdf::18                     0                       # What read queue length does an incoming req see
system.mem_ctrls1.rdQLenPdf::19                     0                       # What read queue length does an incoming req see
system.mem_ctrls1.rdQLenPdf::20                     0                       # What read queue length does an incoming req see
system.mem_ctrls1.rdQLenPdf::21                     0                       # What read queue length does an incoming req see
system.mem_ctrls1.rdQLenPdf::22                     0                       # What read queue length does an incoming req see
system.mem_ctrls1.rdQLenPdf::23                     0                       # What read queue length does an incoming req see
system.mem_ctrls1.rdQLenPdf::24                     0                       # What read queue length does an incoming req see
system.mem_ctrls1.rdQLenPdf::25                     0                       # What read queue length does an incoming req see
system.mem_ctrls1.rdQLenPdf::26                     0                       # What read queue length does an incoming req see
system.mem_ctrls1.rdQLenPdf::27                     0                       # What read queue length does an incoming req see
system.mem_ctrls1.rdQLenPdf::28                     0                       # What read queue length does an incoming req see
system.mem_ctrls1.rdQLenPdf::29                     0                       # What read queue length does an incoming req see
system.mem_ctrls1.rdQLenPdf::30                     0                       # What read queue length does an incoming req see
system.mem_ctrls1.rdQLenPdf::31                     0                       # What read queue length does an incoming req see
system.mem_ctrls1.wrQLenPdf::0                      2                       # What write queue length does an incoming req see
system.mem_ctrls1.wrQLenPdf::1                      2                       # What write queue length does an incoming req see
system.mem_ctrls1.wrQLenPdf::2                      2                       # What write queue length does an incoming req see
system.mem_ctrls1.wrQLenPdf::3                      2                       # What write queue length does an incoming req see
system.mem_ctrls1.wrQLenPdf::4                      2                       # What write queue length does an incoming req see
system.mem_ctrls1.wrQLenPdf::5                      2                       # What write queue length does an incoming req see
system.mem_ctrls1.wrQLenPdf::6                      2                       # What write queue length does an incoming req see
system.mem_ctrls1.wrQLenPdf::7                      2                       # What write queue length does an incoming req see
system.mem_ctrls1.wrQLenPdf::8                      2                       # What write queue length does an incoming req see
system.mem_ctrls1.wrQLenPdf::9                      2                       # What write queue length does an incoming req see
system.mem_ctrls1.wrQLenPdf::10                     2                       # What write queue length does an incoming req see
system.mem_ctrls1.wrQLenPdf::11                     2                       # What write queue length does an incoming req see
system.mem_ctrls1.wrQLenPdf::12                     2                       # What write queue length does an incoming req see
system.mem_ctrls1.wrQLenPdf::13                     2                       # What write queue length does an incoming req see
system.mem_ctrls1.wrQLenPdf::14                     2                       # What write queue length does an incoming req see
system.mem_ctrls1.wrQLenPdf::15                 73732                       # What write queue length does an incoming req see
system.mem_ctrls1.wrQLenPdf::16                 76407                       # What write queue length does an incoming req see
system.mem_ctrls1.wrQLenPdf::17                 98217                       # What write queue length does an incoming req see
system.mem_ctrls1.wrQLenPdf::18                101307                       # What write queue length does an incoming req see
system.mem_ctrls1.wrQLenPdf::19                101791                       # What write queue length does an incoming req see
system.mem_ctrls1.wrQLenPdf::20                101880                       # What write queue length does an incoming req see
system.mem_ctrls1.wrQLenPdf::21                102148                       # What write queue length does an incoming req see
system.mem_ctrls1.wrQLenPdf::22                102535                       # What write queue length does an incoming req see
system.mem_ctrls1.wrQLenPdf::23                102341                       # What write queue length does an incoming req see
system.mem_ctrls1.wrQLenPdf::24                102086                       # What write queue length does an incoming req see
system.mem_ctrls1.wrQLenPdf::25                101925                       # What write queue length does an incoming req see
system.mem_ctrls1.wrQLenPdf::26                101909                       # What write queue length does an incoming req see
system.mem_ctrls1.wrQLenPdf::27                102010                       # What write queue length does an incoming req see
system.mem_ctrls1.wrQLenPdf::28                101970                       # What write queue length does an incoming req see
system.mem_ctrls1.wrQLenPdf::29                102182                       # What write queue length does an incoming req see
system.mem_ctrls1.wrQLenPdf::30                102886                       # What write queue length does an incoming req see
system.mem_ctrls1.wrQLenPdf::31                101567                       # What write queue length does an incoming req see
system.mem_ctrls1.wrQLenPdf::32                101508                       # What write queue length does an incoming req see
system.mem_ctrls1.wrQLenPdf::33                   243                       # What write queue length does an incoming req see
system.mem_ctrls1.wrQLenPdf::34                    20                       # What write queue length does an incoming req see
system.mem_ctrls1.wrQLenPdf::35                     4                       # What write queue length does an incoming req see
system.mem_ctrls1.wrQLenPdf::36                     0                       # What write queue length does an incoming req see
system.mem_ctrls1.wrQLenPdf::37                     0                       # What write queue length does an incoming req see
system.mem_ctrls1.wrQLenPdf::38                     0                       # What write queue length does an incoming req see
system.mem_ctrls1.wrQLenPdf::39                     0                       # What write queue length does an incoming req see
system.mem_ctrls1.wrQLenPdf::40                     0                       # What write queue length does an incoming req see
system.mem_ctrls1.wrQLenPdf::41                     0                       # What write queue length does an incoming req see
system.mem_ctrls1.wrQLenPdf::42                     0                       # What write queue length does an incoming req see
system.mem_ctrls1.wrQLenPdf::43                     0                       # What write queue length does an incoming req see
system.mem_ctrls1.wrQLenPdf::44                     0                       # What write queue length does an incoming req see
system.mem_ctrls1.wrQLenPdf::45                     0                       # What write queue length does an incoming req see
system.mem_ctrls1.wrQLenPdf::46                     0                       # What write queue length does an incoming req see
system.mem_ctrls1.wrQLenPdf::47                     0                       # What write queue length does an incoming req see
system.mem_ctrls1.wrQLenPdf::48                     0                       # What write queue length does an incoming req see
system.mem_ctrls1.wrQLenPdf::49                     0                       # What write queue length does an incoming req see
system.mem_ctrls1.wrQLenPdf::50                     0                       # What write queue length does an incoming req see
system.mem_ctrls1.wrQLenPdf::51                     0                       # What write queue length does an incoming req see
system.mem_ctrls1.wrQLenPdf::52                     0                       # What write queue length does an incoming req see
system.mem_ctrls1.wrQLenPdf::53                     0                       # What write queue length does an incoming req see
system.mem_ctrls1.wrQLenPdf::54                     0                       # What write queue length does an incoming req see
system.mem_ctrls1.wrQLenPdf::55                     0                       # What write queue length does an incoming req see
system.mem_ctrls1.wrQLenPdf::56                     0                       # What write queue length does an incoming req see
system.mem_ctrls1.wrQLenPdf::57                     0                       # What write queue length does an incoming req see
system.mem_ctrls1.wrQLenPdf::58                     0                       # What write queue length does an incoming req see
system.mem_ctrls1.wrQLenPdf::59                     0                       # What write queue length does an incoming req see
system.mem_ctrls1.wrQLenPdf::60                     0                       # What write queue length does an incoming req see
system.mem_ctrls1.wrQLenPdf::61                     0                       # What write queue length does an incoming req see
system.mem_ctrls1.wrQLenPdf::62                     0                       # What write queue length does an incoming req see
system.mem_ctrls1.wrQLenPdf::63                     0                       # What write queue length does an incoming req see
system.mem_ctrls1.bytesPerActivate::samples      2922346                       # Bytes accessed per row activation
system.mem_ctrls1.bytesPerActivate::mean   157.484542                       # Bytes accessed per row activation
system.mem_ctrls1.bytesPerActivate::gmean   116.640763                       # Bytes accessed per row activation
system.mem_ctrls1.bytesPerActivate::stdev   155.793139                       # Bytes accessed per row activation
system.mem_ctrls1.bytesPerActivate::0-127      1364952     46.71%     46.71% # Bytes accessed per row activation
system.mem_ctrls1.bytesPerActivate::128-255      1028256     35.19%     81.89% # Bytes accessed per row activation
system.mem_ctrls1.bytesPerActivate::256-383       184839      6.33%     88.22% # Bytes accessed per row activation
system.mem_ctrls1.bytesPerActivate::384-511       159111      5.44%     93.66% # Bytes accessed per row activation
system.mem_ctrls1.bytesPerActivate::512-639       127396      4.36%     98.02% # Bytes accessed per row activation
system.mem_ctrls1.bytesPerActivate::640-767        23151      0.79%     98.81% # Bytes accessed per row activation
system.mem_ctrls1.bytesPerActivate::768-895         9353      0.32%     99.13% # Bytes accessed per row activation
system.mem_ctrls1.bytesPerActivate::896-1023         7087      0.24%     99.38% # Bytes accessed per row activation
system.mem_ctrls1.bytesPerActivate::1024-1151        18201      0.62%    100.00% # Bytes accessed per row activation
system.mem_ctrls1.bytesPerActivate::total      2922346                       # Bytes accessed per row activation
system.mem_ctrls1.rdPerTurnAround::samples       101262                       # Reads before turning the bus around for writes
system.mem_ctrls1.rdPerTurnAround::mean     53.448767                       # Reads before turning the bus around for writes
system.mem_ctrls1.rdPerTurnAround::gmean    46.391981                       # Reads before turning the bus around for writes
system.mem_ctrls1.rdPerTurnAround::stdev   104.067476                       # Reads before turning the bus around for writes
system.mem_ctrls1.rdPerTurnAround::0-1023       101261    100.00%    100.00% # Reads before turning the bus around for writes
system.mem_ctrls1.rdPerTurnAround::30720-31743            1      0.00%    100.00% # Reads before turning the bus around for writes
system.mem_ctrls1.rdPerTurnAround::total       101262                       # Reads before turning the bus around for writes
system.mem_ctrls1.wrPerTurnAround::samples       101262                       # Writes before turning the bus around for reads
system.mem_ctrls1.wrPerTurnAround::mean     17.564990                       # Writes before turning the bus around for reads
system.mem_ctrls1.wrPerTurnAround::gmean    17.538679                       # Writes before turning the bus around for reads
system.mem_ctrls1.wrPerTurnAround::stdev     0.948646                       # Writes before turning the bus around for reads
system.mem_ctrls1.wrPerTurnAround::16           24634     24.33%     24.33% # Writes before turning the bus around for reads
system.mem_ctrls1.wrPerTurnAround::17            2306      2.28%     26.60% # Writes before turning the bus around for reads
system.mem_ctrls1.wrPerTurnAround::18           67617     66.77%     93.38% # Writes before turning the bus around for reads
system.mem_ctrls1.wrPerTurnAround::19            5977      5.90%     99.28% # Writes before turning the bus around for reads
system.mem_ctrls1.wrPerTurnAround::20             658      0.65%     99.93% # Writes before turning the bus around for reads
system.mem_ctrls1.wrPerTurnAround::21              59      0.06%     99.99% # Writes before turning the bus around for reads
system.mem_ctrls1.wrPerTurnAround::22               7      0.01%    100.00% # Writes before turning the bus around for reads
system.mem_ctrls1.wrPerTurnAround::23               3      0.00%    100.00% # Writes before turning the bus around for reads
system.mem_ctrls1.wrPerTurnAround::29               1      0.00%    100.00% # Writes before turning the bus around for reads
system.mem_ctrls1.wrPerTurnAround::total       101262                       # Writes before turning the bus around for reads
system.mem_ctrls1.totQLat                117121379188                       # Total ticks spent queuing
system.mem_ctrls1.totMemAccLat           218603560438                       # Total ticks spent from burst creation until serviced by the DRAM
system.mem_ctrls1.totBusLat               27061915000                       # Total ticks spent in databus transfers
system.mem_ctrls1.avgQLat                    21639.52                       # Average queueing delay per DRAM burst
system.mem_ctrls1.avgBusLat                   5000.00                       # Average bus latency per DRAM burst
system.mem_ctrls1.avgMemAccLat               40389.52                       # Average memory access latency per DRAM burst
system.mem_ctrls1.avgRdBW                      134.28                       # Average DRAM read bandwidth in MiByte/s
system.mem_ctrls1.avgWrBW                       44.13                       # Average achieved write bandwidth in MiByte/s
system.mem_ctrls1.avgRdBWSys                   134.29                       # Average system read bandwidth in MiByte/s
system.mem_ctrls1.avgWrBWSys                    44.13                       # Average system write bandwidth in MiByte/s
system.mem_ctrls1.peakBW                     12800.00                       # Theoretical peak bandwidth in MiByte/s
system.mem_ctrls1.busUtil                        1.39                       # Data bus utilization in percentage
system.mem_ctrls1.busUtilRead                    1.05                       # Data bus utilization in percentage for reads
system.mem_ctrls1.busUtilWrite                   0.34                       # Data bus utilization in percentage for writes
system.mem_ctrls1.avgRdQLen                      1.04                       # Average read queue length when enqueuing
system.mem_ctrls1.avgWrQLen                     24.42                       # Average write queue length when enqueuing
system.mem_ctrls1.readRowHits                 3349939                       # Number of row buffer hits during reads
system.mem_ctrls1.writeRowHits                 918755                       # Number of row buffer hits during writes
system.mem_ctrls1.readRowHitRate                61.89                       # Row buffer hit rate for reads
system.mem_ctrls1.writeRowHitRate               51.65                       # Row buffer hit rate for writes
system.mem_ctrls1.avgGap                    358710.90                       # Average gap between requests
system.mem_ctrls1.pageHitRate                   59.36                       # Row buffer hit rate, read and write combined
system.mem_ctrls1_0.actEnergy             10479449400                       # Energy for activate commands per rank (pJ)
system.mem_ctrls1_0.preEnergy              5569936680                       # Energy for precharge commands per rank (pJ)
system.mem_ctrls1_0.readEnergy            19399965480                       # Energy for read commands per rank (pJ)
system.mem_ctrls1_0.writeEnergy            4671461520                       # Energy for write commands per rank (pJ)
system.mem_ctrls1_0.refreshEnergy        198993387840.000031                       # Energy for refresh commands per rank (pJ)
system.mem_ctrls1_0.actBackEnergy        121907175660                       # Energy for active background per rank (pJ)
system.mem_ctrls1_0.preBackEnergy          6831485760                       # Energy for precharge background per rank (pJ)
system.mem_ctrls1_0.actPowerDownEnergy   778149093930                       # Energy for active power-down per rank (pJ)
system.mem_ctrls1_0.prePowerDownEnergy   147643350720                       # Energy for precharge power-down per rank (pJ)
system.mem_ctrls1_0.selfRefreshEnergy     59900610960                       # Energy for self refresh per rank (pJ)
system.mem_ctrls1_0.totalEnergy          1353584728350                       # Total energy per rank (pJ)
system.mem_ctrls1_0.averagePower           524.709175                       # Core power per rank (mW)
system.mem_ctrls1_0.totalIdleTime        2294475598741                       # Total Idle time Per DRAM Rank
system.mem_ctrls1_0.memoryStateTime::IDLE   7338480016                       # Time in different power states
system.mem_ctrls1_0.memoryStateTime::REF  84300646000                       # Time in different power states
system.mem_ctrls1_0.memoryStateTime::SREF 203513431872                       # Time in different power states
system.mem_ctrls1_0.memoryStateTime::PRE_PDN 384489106439                       # Time in different power states
system.mem_ctrls1_0.memoryStateTime::ACT 193570903347                       # Time in different power states
system.mem_ctrls1_0.memoryStateTime::ACT_PDN 1706473060430                       # Time in different power states
system.mem_ctrls1_1.actEnergy             10386165300                       # Energy for activate commands per rank (pJ)
system.mem_ctrls1_1.preEnergy              5520366390                       # Energy for precharge commands per rank (pJ)
system.mem_ctrls1_1.readEnergy            19244442000                       # Energy for read commands per rank (pJ)
system.mem_ctrls1_1.writeEnergy            4613175000                       # Energy for write commands per rank (pJ)
system.mem_ctrls1_1.refreshEnergy        198276717600.000031                       # Energy for refresh commands per rank (pJ)
system.mem_ctrls1_1.actBackEnergy        121885327560                       # Energy for active background per rank (pJ)
system.mem_ctrls1_1.preBackEnergy          6817393920                       # Energy for precharge background per rank (pJ)
system.mem_ctrls1_1.actPowerDownEnergy   771178582170                       # Energy for active power-down per rank (pJ)
system.mem_ctrls1_1.prePowerDownEnergy   148845801120                       # Energy for precharge power-down per rank (pJ)
system.mem_ctrls1_1.selfRefreshEnergy     63079035885                       # Energy for self refresh per rank (pJ)
system.mem_ctrls1_1.totalEnergy          1349888858565                       # Total energy per rank (pJ)
system.mem_ctrls1_1.averagePower           523.276489                       # Core power per rank (mW)
system.mem_ctrls1_1.totalIdleTime        2294542493994                       # Total Idle time Per DRAM Rank
system.mem_ctrls1_1.memoryStateTime::IDLE   7358411111                       # Time in different power states
system.mem_ctrls1_1.memoryStateTime::REF  84000348000                       # Time in different power states
system.mem_ctrls1_1.memoryStateTime::SREF 215746069836                       # Time in different power states
system.mem_ctrls1_1.memoryStateTime::PRE_PDN 387614096600                       # Time in different power states
system.mem_ctrls1_1.memoryStateTime::ACT 193784374999                       # Time in different power states
system.mem_ctrls1_1.memoryStateTime::ACT_PDN 1691182327558                       # Time in different power states
system.pwrStateResidencyTicks::UNDEFINED 75849839428806                       # Cumulative time (in ticks) in various power states
system.cpu.branchPred.lookups                       2                       # Number of BP lookups
system.cpu.branchPred.condPredicted                 2                       # Number of conditional branches predicted
system.cpu.branchPred.condIncorrect                 1                       # Number of conditional branches incorrect
system.cpu.branchPred.BTBLookups                    0                       # Number of BTB lookups
system.cpu.branchPred.BTBHits                       0                       # Number of BTB hits
system.cpu.branchPred.BTBCorrect                    0                       # Number of correct BTB predictions (this stat may not work properly.
system.cpu.branchPred.BTBHitPct                   nan                       # BTB Hit Percentage
system.cpu.branchPred.usedRAS                       0                       # Number of times the RAS was used to get a target.
system.cpu.branchPred.RASInCorrect                  0                       # Number of incorrect RAS predictions.
system.cpu.branchPred.indirectLookups               0                       # Number of indirect predictor lookups.
system.cpu.branchPred.indirectHits                  0                       # Number of indirect target hits.
system.cpu.branchPred.indirectMisses                0                       # Number of indirect misses.
system.cpu.branchPredindirectMispredicted            0                       # Number of mispredicted indirect branches.
system.cpu_voltage_domain.voltage                   1                       # Voltage in Volts
system.cpu_clk_domain.clock                       333                       # Clock period in ticks
system.cpu.dtb.fetch_hits                           0                       # ITB hits
system.cpu.dtb.fetch_misses                         0                       # ITB misses
system.cpu.dtb.fetch_acv                            0                       # ITB acv
system.cpu.dtb.fetch_accesses                       0                       # ITB accesses
system.cpu.dtb.read_hits                           28                       # DTB read hits
system.cpu.dtb.read_misses                          0                       # DTB read misses
system.cpu.dtb.read_acv                             0                       # DTB read access violations
system.cpu.dtb.read_accesses                       28                       # DTB read accesses
system.cpu.dtb.write_hits                           3                       # DTB write hits
system.cpu.dtb.write_misses                         0                       # DTB write misses
system.cpu.dtb.write_acv                            0                       # DTB write access violations
system.cpu.dtb.write_accesses                       3                       # DTB write accesses
system.cpu.dtb.data_hits                           31                       # DTB hits
system.cpu.dtb.data_misses                          0                       # DTB misses
system.cpu.dtb.data_acv                             0                       # DTB access violations
system.cpu.dtb.data_accesses                       31                       # DTB accesses
system.cpu.itb.fetch_hits                           7                       # ITB hits
system.cpu.itb.fetch_misses                         0                       # ITB misses
system.cpu.itb.fetch_acv                            0                       # ITB acv
system.cpu.itb.fetch_accesses                       7                       # ITB accesses
system.cpu.itb.read_hits                            0                       # DTB read hits
system.cpu.itb.read_misses                          0                       # DTB read misses
system.cpu.itb.read_acv                             0                       # DTB read access violations
system.cpu.itb.read_accesses                        0                       # DTB read accesses
system.cpu.itb.write_hits                           0                       # DTB write hits
system.cpu.itb.write_misses                         0                       # DTB write misses
system.cpu.itb.write_acv                            0                       # DTB write access violations
system.cpu.itb.write_accesses                       0                       # DTB write accesses
system.cpu.itb.data_hits                            0                       # DTB hits
system.cpu.itb.data_misses                          0                       # DTB misses
system.cpu.itb.data_acv                             0                       # DTB access violations
system.cpu.itb.data_accesses                        0                       # DTB accesses
system.cpu.workload.num_syscalls                    0                       # Number of system calls
system.cpu.pwrStateResidencyTicks::ON    2579685628104                       # Cumulative time (in ticks) in various power states
system.cpu.numCycles                             1461                       # number of cpu cycles simulated
system.cpu.numWorkItemsStarted                      0                       # number of work items this cpu started
system.cpu.numWorkItemsCompleted                    0                       # number of work items this cpu completed
system.cpu.fetch.icacheStallCycles                 55                       # Number of cycles fetch is stalled on an Icache miss
system.cpu.fetch.Insts                             51                       # Number of instructions fetch has processed
system.cpu.fetch.Branches                           2                       # Number of branches that fetch encountered
system.cpu.fetch.Cycles                             7                       # Number of cycles fetch has run and was not squashing or blocked
system.cpu.fetch.SquashCycles                       5                       # Number of cycles fetch has spent squashing
system.cpu.fetch.PendingDrainCycles                10                       # Number of cycles fetch has spent waiting on pipes to drain
system.cpu.fetch.CacheLines                         7                       # Number of cache lines fetched
system.cpu.fetch.IcacheSquashes                     3                       # Number of outstanding Icache misses that were squashed
system.cpu.fetch.rateDist::samples                 74                       # Number of instructions fetched each cycle (Total)
system.cpu.fetch.rateDist::mean              0.689189                       # Number of instructions fetched each cycle (Total)
system.cpu.fetch.rateDist::stdev             2.189174                       # Number of instructions fetched each cycle (Total)
system.cpu.fetch.rateDist::underflows               0      0.00%      0.00% # Number of instructions fetched each cycle (Total)
system.cpu.fetch.rateDist::0                       67     90.54%     90.54% # Number of instructions fetched each cycle (Total)
system.cpu.fetch.rateDist::1                        0      0.00%     90.54% # Number of instructions fetched each cycle (Total)
system.cpu.fetch.rateDist::2                        0      0.00%     90.54% # Number of instructions fetched each cycle (Total)
system.cpu.fetch.rateDist::3                        0      0.00%     90.54% # Number of instructions fetched each cycle (Total)
[...]
system.switch_cpus_1.iq.int_inst_queue_writes    358468045                       # Number of integer instruction queue writes
system.switch_cpus_1.iq.int_inst_queue_wakeup_accesses    350546039                       # Number of integer instruction queue wakeup accesses
system.switch_cpus_1.iq.fp_inst_queue_reads    380377139                       # Number of floating instruction queue reads
system.switch_cpus_1.iq.fp_inst_queue_writes    161642594                       # Number of floating instruction queue writes
system.switch_cpus_1.iq.fp_inst_queue_wakeup_accesses    156427256                       # Number of floating instruction queue wakeup accesses
system.switch_cpus_1.iq.int_alu_accesses    385386137                       # Number of integer alu accesses
system.switch_cpus_1.iq.fp_alu_accesses     204114614                       # Number of floating point alu accesses
system.switch_cpus_1.iew.lsq.thread0.forwLoads      3970554                       # Number of loads that had data forwarded from stores
system.switch_cpus_1.iew.lsq.thread0.invAddrLoads            0                       # Number of loads ignored due to an invalid address
system.switch_cpus_1.iew.lsq.thread0.squashedLoads      3465956                       # Number of loads squashed
system.switch_cpus_1.iew.lsq.thread0.ignoredResponses         1810                       # Number of memory responses ignored because the instruction is squashed
system.switch_cpus_1.iew.lsq.thread0.memOrderViolation         1188                       # Number of memory ordering violations
system.switch_cpus_1.iew.lsq.thread0.squashedStores       648421                       # Number of stores squashed
system.switch_cpus_1.iew.lsq.thread0.invAddrSwpfs            0                       # Number of software prefetches ignored due to an invalid address
system.switch_cpus_1.iew.lsq.thread0.blockedLoads            0                       # Number of blocked loads due to partial load-store forwarding
system.switch_cpus_1.iew.lsq.thread0.rescheduledLoads            0                       # Number of loads that were rescheduled
system.switch_cpus_1.iew.lsq.thread0.cacheBlocked     31013449                       # Number of times an access to memory failed due to the cache being blocked
system.switch_cpus_1.iew.iewIdleCycles              0                       # Number of cycles IEW is idle
system.switch_cpus_1.iew.iewSquashCycles       218115                       # Number of cycles IEW is squashing
system.switch_cpus_1.iew.iewBlockCycles     196552627                       # Number of cycles IEW is blocking
system.switch_cpus_1.iew.iewUnblockCycles    116916352                       # Number of cycles IEW is unblocking
system.switch_cpus_1.iew.iewDispatchedInsts    510266867                       # Number of instructions dispatched to IQ
system.switch_cpus_1.iew.iewDispSquashedInsts       184946                       # Number of squashed instructions skipped by dispatch
system.switch_cpus_1.iew.iewDispLoadInsts    165992522                       # Number of dispatched load instructions
system.switch_cpus_1.iew.iewDispStoreInsts     28268665                       # Number of dispatched store instructions
system.switch_cpus_1.iew.iewDispNonSpecInsts          221                       # Number of dispatched non-speculative instructions
system.switch_cpus_1.iew.iewIQFullEvents       885310                       # Number of times the IQ has become full, causing a stall
system.switch_cpus_1.iew.iewLSQFullEvents    115302246                       # Number of times the LSQ has become full, causing a stall
system.switch_cpus_1.iew.memOrderViolationEvents         1188                       # Number of memory order violations
system.switch_cpus_1.iew.predictedTakenIncorrect       135917                       # Number of branches that were predicted taken incorrectly
system.switch_cpus_1.iew.predictedNotTakenIncorrect         1718                       # Number of branches that were predicted not taken incorrectly
system.switch_cpus_1.iew.branchMispredicts       137635                       # Number of branch mispredicts detected at execute
system.switch_cpus_1.iew.iewExecutedInsts    537877541                       # Number of executed instructions
system.switch_cpus_1.iew.iewExecLoadInsts    195681814                       # Number of load instructions executed
system.switch_cpus_1.iew.iewExecSquashedInsts       315840                       # Number of squashed instructions skipped in execute
system.switch_cpus_1.iew.exec_swp                   0                       # number of swp insts executed
system.switch_cpus_1.iew.exec_nop              212096                       # number of nop insts executed
system.switch_cpus_1.iew.exec_refs          223526383                       # number of memory reference insts executed
system.switch_cpus_1.iew.exec_branches       15230144                       # Number of branches executed
system.switch_cpus_1.iew.exec_stores         27844569                       # Number of stores executed
system.switch_cpus_1.iew.exec_rate           0.551354                       # Inst execution rate
system.switch_cpus_1.iew.wb_sent            507484286                       # cumulative count of insts sent to commit
system.switch_cpus_1.iew.wb_count           506973295                       # cumulative count of insts written-back
system.switch_cpus_1.iew.wb_producers       340960712                       # num instructions producing a value
system.switch_cpus_1.iew.wb_consumers       375188112                       # num instructions consuming a value
system.switch_cpus_1.iew.wb_rate             0.519675                       # insts written-back per cycle
system.switch_cpus_1.iew.wb_fanout           0.908773                       # average fanout of values written-back
system.switch_cpus_1.commit.commitSquashedInsts      9455565                       # The number of squashed insts skipped by commit
system.switch_cpus_1.commit.commitNonSpecStalls          312                       # The number of times commit has been forced to stall to communicate backwards
system.switch_cpus_1.commit.branchMispredicts       130837                       # The number of times a branch was mispredicted
system.switch_cpus_1.commit.committed_per_cycle::samples    974159657                       # Number of insts commited each cycle
system.switch_cpus_1.commit.committed_per_cycle::mean     0.513456                       # Number of insts commited each cycle
system.switch_cpus_1.commit.committed_per_cycle::stdev     1.829100                       # Number of insts commited each cycle
system.switch_cpus_1.commit.committed_per_cycle::underflows            0      0.00%      0.00% # Number of insts commited each cycle
system.switch_cpus_1.commit.committed_per_cycle::0    880070850     90.34%     90.34% # Number of insts commited each cycle
system.switch_cpus_1.commit.committed_per_cycle::1     22877547      2.35%     92.69% # Number of insts commited each cycle
system.switch_cpus_1.commit.committed_per_cycle::2      4474468      0.46%     93.15% # Number of insts commited each cycle
system.switch_cpus_1.commit.committed_per_cycle::3      5176037      0.53%     93.68% # Number of insts commited each cycle
system.switch_cpus_1.commit.committed_per_cycle::4      5015469      0.51%     94.20% # Number of insts commited each cycle
system.switch_cpus_1.commit.committed_per_cycle::5      3050774      0.31%     94.51% # Number of insts commited each cycle
system.switch_cpus_1.commit.committed_per_cycle::6      2513689      0.26%     94.77% # Number of insts commited each cycle
system.switch_cpus_1.commit.committed_per_cycle::7      5410713      0.56%     95.32% # Number of insts commited each cycle
system.switch_cpus_1.commit.committed_per_cycle::8     45570110      4.68%    100.00% # Number of insts commited each cycle
system.switch_cpus_1.commit.committed_per_cycle::overflows            0      0.00%    100.00% # Number of insts commited each cycle
system.switch_cpus_1.commit.committed_per_cycle::min_value            0                       # Number of insts commited each cycle
system.switch_cpus_1.commit.committed_per_cycle::max_value            8                       # Number of insts commited each cycle
system.switch_cpus_1.commit.committed_per_cycle::total    974159657                       # Number of insts commited each cycle
system.switch_cpus_1.commit.committedInsts    500188345                       # Number of instructions committed
system.switch_cpus_1.commit.committedOps    500188345                       # Number of ops (including micro ops) committed
system.switch_cpus_1.commit.swp_count               0                       # Number of s/w prefetches committed
system.switch_cpus_1.commit.refs            190146782                       # Number of memory references committed
system.switch_cpus_1.commit.loads           162526542                       # Number of loads committed
system.switch_cpus_1.commit.membars               156                       # Number of memory barriers committed
system.switch_cpus_1.commit.branches         14859026                       # Number of branches committed
system.switch_cpus_1.commit.fp_insts        155259316                       # Number of committed floating point instructions.
system.switch_cpus_1.commit.int_insts       424637432                       # Number of committed integer instructions.
system.switch_cpus_1.commit.function_calls          162                       # Number of function calls committed.
system.switch_cpus_1.commit.op_class_0::No_OpClass       188344      0.04%      0.04% # Class of committed instruction
system.switch_cpus_1.commit.op_class_0::IntAlu    181816044     36.35%     36.39% # Class of committed instruction
system.switch_cpus_1.commit.op_class_0::IntMult     52727404     10.54%     46.93% # Class of committed instruction
system.switch_cpus_1.commit.op_class_0::IntDiv            0      0.00%     46.93% # Class of committed instruction
system.switch_cpus_1.commit.op_class_0::FloatAdd     36987680      7.39%     54.32% # Class of committed instruction
system.switch_cpus_1.commit.op_class_0::FloatCmp            0      0.00%     54.32% # Class of committed instruction
system.switch_cpus_1.commit.op_class_0::FloatCvt         6610      0.00%     54.32% # Class of committed instruction
system.switch_cpus_1.commit.op_class_0::FloatMult     34710316      6.94%     61.26% # Class of committed instruction
system.switch_cpus_1.commit.op_class_0::FloatMultAcc            0      0.00%     61.26% # Class of committed instruction
system.switch_cpus_1.commit.op_class_0::FloatDiv      3208409      0.64%     61.91% # Class of committed instruction
system.switch_cpus_1.commit.op_class_0::FloatMisc            0      0.00%     61.91% # Class of committed instruction
system.switch_cpus_1.commit.op_class_0::FloatSqrt       396600      0.08%     61.98% # Class of committed instruction
system.switch_cpus_1.commit.op_class_0::SimdAdd            0      0.00%     61.98% # Class of committed instruction
system.switch_cpus_1.commit.op_class_0::SimdAddAcc            0      0.00%     61.98% # Class of committed instruction
system.switch_cpus_1.commit.op_class_0::SimdAlu            0      0.00%     61.98% # Class of committed instruction
system.switch_cpus_1.commit.op_class_0::SimdCmp            0      0.00%     61.98% # Class of committed instruction
system.switch_cpus_1.commit.op_class_0::SimdCvt            0      0.00%     61.98% # Class of committed instruction
system.switch_cpus_1.commit.op_class_0::SimdMisc            0      0.00%     61.98% # Class of committed instruction
system.switch_cpus_1.commit.op_class_0::SimdMult            0      0.00%     61.98% # Class of committed instruction
system.switch_cpus_1.commit.op_class_0::SimdMultAcc            0      0.00%     61.98% # Class of committed instruction
system.switch_cpus_1.commit.op_class_0::SimdShift            0      0.00%     61.98% # Class of committed instruction
system.switch_cpus_1.commit.op_class_0::SimdShiftAcc            0      0.00%     61.98% # Class of committed instruction
system.switch_cpus_1.commit.op_class_0::SimdSqrt            0      0.00%     61.98% # Class of committed instruction
system.switch_cpus_1.commit.op_class_0::SimdFloatAdd            0      0.00%     61.98% # Class of committed instruction
system.switch_cpus_1.commit.op_class_0::SimdFloatAlu            0      0.00%     61.98% # Class of committed instruction
system.switch_cpus_1.commit.op_class_0::SimdFloatCmp            0      0.00%     61.98% # Class of committed instruction
system.switch_cpus_1.commit.op_class_0::SimdFloatCvt            0      0.00%     61.98% # Class of committed instruction
system.switch_cpus_1.commit.op_class_0::SimdFloatDiv            0      0.00%     61.98% # Class of committed instruction
system.switch_cpus_1.commit.op_class_0::SimdFloatMisc            0      0.00%     61.98% # Class of committed instruction
system.switch_cpus_1.commit.op_class_0::SimdFloatMult            0      0.00%     61.98% # Class of committed instruction
system.switch_cpus_1.commit.op_class_0::SimdFloatMultAcc            0      0.00%     61.98% # Class of committed instruction
system.switch_cpus_1.commit.op_class_0::SimdFloatSqrt            0      0.00%     61.98% # Class of committed instruction
system.switch_cpus_1.commit.op_class_0::MemRead    102286796     20.45%     82.43% # Class of committed instruction
system.switch_cpus_1.commit.op_class_0::MemWrite      7910441      1.58%     84.02% # Class of committed instruction
system.switch_cpus_1.commit.op_class_0::FloatMemRead     60239902     12.04%     96.06% # Class of committed instruction
system.switch_cpus_1.commit.op_class_0::FloatMemWrite     19709799      3.94%    100.00% # Class of committed instruction
system.switch_cpus_1.commit.op_class_0::IprAccess            0      0.00%    100.00% # Class of committed instruction
system.switch_cpus_1.commit.op_class_0::InstPrefetch            0      0.00%    100.00% # Class of committed instruction
system.switch_cpus_1.commit.op_class_0::total    500188345                       # Class of committed instruction
system.switch_cpus_1.commit.bw_lim_events     45570110                       # number cycles where commit BW limit reached
system.switch_cpus_1.rob.rob_reads         1437111414                       # The number of ROB reads
system.switch_cpus_1.rob.rob_writes        1020565985                       # The number of ROB writes
system.switch_cpus_1.timesIdled                   566                       # Number of times that the entire CPU went into an idle state and unscheduled itself
system.switch_cpus_1.idleCycles                120282                       # Total number of cycles that the CPU has spent unscheduled due to idling
system.switch_cpus_1.committedInsts         500000001                       # Number of Instructions Simulated
system.switch_cpus_1.committedOps           500000001                       # Number of Ops (including micro ops) Simulated
system.switch_cpus_1.cpi                     1.951116                       # CPI: Cycles Per Instruction
system.switch_cpus_1.cpi_total               1.951116                       # CPI: Total CPI of All Threads
system.switch_cpus_1.ipc                     0.512527                       # IPC: Instructions Per Cycle
system.switch_cpus_1.ipc_total               0.512527                       # IPC: Total IPC of All Threads
system.switch_cpus_1.int_regfile_reads      655791512                       # number of integer regfile reads
system.switch_cpus_1.int_regfile_writes     327399943                       # number of integer regfile writes
system.switch_cpus_1.fp_regfile_reads       170899687                       # number of floating regfile reads
system.switch_cpus_1.fp_regfile_writes      136655964                       # number of floating regfile writes
system.switch_cpus_1.misc_regfile_reads           351                       # number of misc regfile reads
system.switch_cpus_1.misc_regfile_writes          312                       # number of misc regfile writes
system.tol3bus.snoop_filter.tot_requests     27163832                       # Total number of requests made to the snoop filter.
system.tol3bus.snoop_filter.hit_single_requests     13579609                       # Number of requests hitting in the snoop filter with a single holder of the requested data.
system.tol3bus.snoop_filter.hit_multi_requests            0                       # Number of requests hitting in the snoop filter with multiple (>1) holders of the requested data.
system.tol3bus.snoop_filter.tot_snoops           2749                       # Total number of snoops made to the snoop filter.
system.tol3bus.snoop_filter.hit_single_snoops         2749                       # Number of snoops hitting in the snoop filter with a single holder of the requested data.
system.tol3bus.snoop_filter.hit_multi_snoops            0                       # Number of snoops hitting in the snoop filter with multiple (>1) holders of the requested data.
system.tol3bus.pwrStateResidencyTicks::UNDEFINED 75849839428806                       # Cumulative time (in ticks) in various power states
system.tol3bus.trans_dist::ReadResp          10470800                       # Transaction distribution
system.tol3bus.trans_dist::WritebackDirty      7888776                       # Transaction distribution
system.tol3bus.trans_dist::CleanEvict        16451111                       # Transaction distribution
system.tol3bus.trans_dist::ReadExReq          3113423                       # Transaction distribution
system.tol3bus.trans_dist::ReadExResp         3113421                       # Transaction distribution
system.tol3bus.trans_dist::ReadSharedReq     10470800                       # Transaction distribution
system.tol3bus.pkt_count_system.cpu.l2.mem_side::system.l3.cpu_side     40748053                       # Packet count per connected master and slave (bytes)
system.tol3bus.pkt_size_system.cpu.l2.mem_side::system.l3.cpu_side   1146589120                       # Cumulative packet size per connected master and slave (bytes)
system.tol3bus.snoops                        10760278                       # Total snoops (count)
system.tol3bus.snoopTraffic                 227682688                       # Total snoop traffic (bytes)
system.tol3bus.snoop_fanout::samples         24344501                       # Request fanout histogram
system.tol3bus.snoop_fanout::mean            0.000113                       # Request fanout histogram
system.tol3bus.snoop_fanout::stdev           0.010626                       # Request fanout histogram
system.tol3bus.snoop_fanout::underflows             0      0.00%      0.00% # Request fanout histogram
system.tol3bus.snoop_fanout::0               24341752     99.99%     99.99% # Request fanout histogram
system.tol3bus.snoop_fanout::1                   2749      0.01%    100.00% # Request fanout histogram
system.tol3bus.snoop_fanout::overflows              0      0.00%    100.00% # Request fanout histogram
system.tol3bus.snoop_fanout::min_value              0                       # Request fanout histogram
system.tol3bus.snoop_fanout::max_value              1                       # Request fanout histogram
system.tol3bus.snoop_fanout::total           24344501                       # Request fanout histogram
system.tol3bus.reqLayer0.occupancy        10487856978                       # Layer occupancy (ticks)
system.tol3bus.reqLayer0.utilization              0.4                       # Layer utilization (%)
system.tol3bus.respLayer0.occupancy        9047091186                       # Layer occupancy (ticks)
system.tol3bus.respLayer0.utilization             0.4                       # Layer utilization (%)

---------- End Simulation Statistics   ----------
