
---------- Begin Simulation Statistics ----------
sim_seconds                                  1.015089                       # Number of seconds simulated
sim_ticks                                1015088883678                       # Number of ticks simulated
final_tick                               400904058490146                       # Number of ticks from beginning of simulation (restored from checkpoints and never reset)
sim_freq                                 1000000000000                       # Frequency of simulated ticks
host_inst_rate                                 703900                       # Simulator instruction rate (inst/s)
host_op_rate                                   703900                       # Simulator op (including micro ops) rate (op/s)
host_tick_rate                              595434631                       # Simulator tick rate (ticks/s)
host_mem_usage                                2411432                       # Number of bytes of host memory used
host_seconds                                  1704.79                       # Real time elapsed on the host
sim_insts                                  1200000004                       # Number of instructions simulated
sim_ops                                    1200000004                       # Number of ops (including micro ops) simulated
system.voltage_domain.voltage                       1                       # Voltage in Volts
system.clk_domain.clock                          1000                       # Clock period in ticks
system.mem_ctrls0.pwrStateResidencyTicks::UNDEFINED 400904058490146                       # Cumulative time (in ticks) in various power states
system.mem_ctrls0.bytes_read::cpu.inst            128                       # Number of bytes read from this memory
system.mem_ctrls0.bytes_read::switch_cpus.inst        22080                       # Number of bytes read from this memory
system.mem_ctrls0.bytes_read::switch_cpus.data      8146752                       # Number of bytes read from this memory
system.mem_ctrls0.bytes_read::switch_cpus_1.inst         3008                       # Number of bytes read from this memory
system.mem_ctrls0.bytes_read::switch_cpus_1.data      1621120                       # Number of bytes read from this memory
system.mem_ctrls0.bytes_read::total           9793088                       # Number of bytes read from this memory
system.mem_ctrls0.bytes_inst_read::cpu.inst          128                       # Number of instructions bytes read from this memory
system.mem_ctrls0.bytes_inst_read::switch_cpus.inst        22080                       # Number of instructions bytes read from this memory
system.mem_ctrls0.bytes_inst_read::switch_cpus_1.inst         3008                       # Number of instructions bytes read from this memory
system.mem_ctrls0.bytes_inst_read::total        25216                       # Number of instructions bytes read from this memory
system.mem_ctrls0.bytes_written::writebacks      5909632                       # Number of bytes written to this memory
system.mem_ctrls0.bytes_written::total        5909632                       # Number of bytes written to this memory
system.mem_ctrls0.num_reads::cpu.inst               2                       # Number of read requests responded to by this memory
system.mem_ctrls0.num_reads::switch_cpus.inst          345                       # Number of read requests responded to by this memory
system.mem_ctrls0.num_reads::switch_cpus.data       127293                       # Number of read requests responded to by this memory
system.mem_ctrls0.num_reads::switch_cpus_1.inst           47                       # Number of read requests responded to by this memory
system.mem_ctrls0.num_reads::switch_cpus_1.data        25330                       # Number of read requests responded to by this memory
system.mem_ctrls0.num_reads::total             153017                       # Number of read requests responded to by this memory
system.mem_ctrls0.num_writes::writebacks        92338                       # Number of write requests responded to by this memory
system.mem_ctrls0.num_writes::total             92338                       # Number of write requests responded to by this memory
system.mem_ctrls0.bw_read::cpu.inst               126                       # Total read bandwidth from this memory (bytes/s)
system.mem_ctrls0.bw_read::switch_cpus.inst        21752                       # Total read bandwidth from this memory (bytes/s)
system.mem_ctrls0.bw_read::switch_cpus.data      8025654                       # Total read bandwidth from this memory (bytes/s)
system.mem_ctrls0.bw_read::switch_cpus_1.inst         2963                       # Total read bandwidth from this memory (bytes/s)
system.mem_ctrls0.bw_read::switch_cpus_1.data      1597023                       # Total read bandwidth from this memory (bytes/s)
system.mem_ctrls0.bw_read::total              9647518                       # Total read bandwidth from this memory (bytes/s)
system.mem_ctrls0.bw_inst_read::cpu.inst          126                       # Instruction read bandwidth from this memory (bytes/s)
system.mem_ctrls0.bw_inst_read::switch_cpus.inst        21752                       # Instruction read bandwidth from this memory (bytes/s)
system.mem_ctrls0.bw_inst_read::switch_cpus_1.inst         2963                       # Instruction read bandwidth from this memory (bytes/s)
system.mem_ctrls0.bw_inst_read::total           24841                       # Instruction read bandwidth from this memory (bytes/s)
system.mem_ctrls0.bw_write::writebacks        5821788                       # Write bandwidth from this memory (bytes/s)
system.mem_ctrls0.bw_write::total             5821788                       # Write bandwidth from this memory (bytes/s)
system.mem_ctrls0.bw_total::writebacks        5821788                       # Total bandwidth to/from this memory (bytes/s)
system.mem_ctrls0.bw_total::cpu.inst              126                       # Total bandwidth to/from this memory (bytes/s)
system.mem_ctrls0.bw_total::switch_cpus.inst        21752                       # Total bandwidth to/from this memory (bytes/s)
system.mem_ctrls0.bw_total::switch_cpus.data      8025654                       # Total bandwidth to/from this memory (bytes/s)
system.mem_ctrls0.bw_total::switch_cpus_1.inst         2963                       # Total bandwidth to/from this memory (bytes/s)
system.mem_ctrls0.bw_total::switch_cpus_1.data      1597023                       # Total bandwidth to/from this memory (bytes/s)
system.mem_ctrls0.bw_total::total            15469305                       # Total bandwidth to/from this memory (bytes/s)
system.mem_ctrls0.readReqs                     153017                       # Number of read requests accepted
system.mem_ctrls0.writeReqs                     92338                       # Number of write requests accepted
system.mem_ctrls0.readBursts                   153017                       # Number of DRAM read bursts, including those serviced by the write queue
system.mem_ctrls0.writeBursts                   92338                       # Number of DRAM write bursts, including those merged in the write queue
system.mem_ctrls0.bytesReadDRAM               9792512                       # Total number of bytes read from DRAM
system.mem_ctrls0.bytesReadWrQ                    576                       # Total number of bytes read from write queue
system.mem_ctrls0.bytesWritten                5907840                       # Total number of bytes written to DRAM
system.mem_ctrls0.bytesReadSys                9793088                       # Total read bytes from the system interface side
system.mem_ctrls0.bytesWrittenSys             5909632                       # Total written bytes from the system interface side
system.mem_ctrls0.servicedByWrQ                     9                       # Number of DRAM read bursts serviced by the write queue
system.mem_ctrls0.mergedWrBursts                    0                       # Number of DRAM write bursts merged with an existing one
system.mem_ctrls0.neitherReadNorWriteReqs            0                       # Number of requests that are neither read nor write
system.mem_ctrls0.perBankRdBursts::0             9637                       # Per bank write bursts
system.mem_ctrls0.perBankRdBursts::1             9649                       # Per bank write bursts
system.mem_ctrls0.perBankRdBursts::2             9739                       # Per bank write bursts
system.mem_ctrls0.perBankRdBursts::3             9620                       # Per bank write bursts
system.mem_ctrls0.perBankRdBursts::4             9508                       # Per bank write bursts
system.mem_ctrls0.perBankRdBursts::5             9714                       # Per bank write bursts
system.mem_ctrls0.perBankRdBursts::6             9606                       # Per bank write bursts
system.mem_ctrls0.perBankRdBursts::7             9414                       # Per bank write bursts
system.mem_ctrls0.perBankRdBursts::8             9588                       # Per bank write bursts
system.mem_ctrls0.perBankRdBursts::9             9507                       # Per bank write bursts
system.mem_ctrls0.perBankRdBursts::10            9459                       # Per bank write bursts
system.mem_ctrls0.perBankRdBursts::11            9485                       # Per bank write bursts
system.mem_ctrls0.perBankRdBursts::12            9610                       # Per bank write bursts
system.mem_ctrls0.perBankRdBursts::13            9566                       # Per bank write bursts
system.mem_ctrls0.perBankRdBursts::14            9183                       # Per bank write bursts
system.mem_ctrls0.perBankRdBursts::15            9723                       # Per bank write bursts
system.mem_ctrls0.perBankWrBursts::0             5817                       # Per bank write bursts
system.mem_ctrls0.perBankWrBursts::1             5785                       # Per bank write bursts
system.mem_ctrls0.perBankWrBursts::2             5801                       # Per bank write bursts
system.mem_ctrls0.perBankWrBursts::3             5788                       # Per bank write bursts
system.mem_ctrls0.perBankWrBursts::4             5745                       # Per bank write bursts
system.mem_ctrls0.perBankWrBursts::5             5902                       # Per bank write bursts
system.mem_ctrls0.perBankWrBursts::6             5776                       # Per bank write bursts
system.mem_ctrls0.perBankWrBursts::7             5631                       # Per bank write bursts
system.mem_ctrls0.perBankWrBursts::8             5875                       # Per bank write bursts
system.mem_ctrls0.perBankWrBursts::9             5781                       # Per bank write bursts
system.mem_ctrls0.perBankWrBursts::10            5734                       # Per bank write bursts
system.mem_ctrls0.perBankWrBursts::11            5702                       # Per bank write bursts
system.mem_ctrls0.perBankWrBursts::12            5754                       # Per bank write bursts
system.mem_ctrls0.perBankWrBursts::13            5727                       # Per bank write bursts
system.mem_ctrls0.perBankWrBursts::14            5544                       # Per bank write bursts
system.mem_ctrls0.perBankWrBursts::15            5948                       # Per bank write bursts
system.mem_ctrls0.numRdRetry                        0                       # Number of times read queue was full causing retry
system.mem_ctrls0.numWrRetry                        0                       # Number of times write queue was full causing retry
system.mem_ctrls0.totGap                 1015088220675                       # Total gap between requests
system.mem_ctrls0.readPktSize::0                    0                       # Read request sizes (log2)
system.mem_ctrls0.readPktSize::1                    0                       # Read request sizes (log2)
system.mem_ctrls0.readPktSize::2                    0                       # Read request sizes (log2)
system.mem_ctrls0.readPktSize::3                    0                       # Read request sizes (log2)
system.mem_ctrls0.readPktSize::4                    0                       # Read request sizes (log2)
system.mem_ctrls0.readPktSize::5                    0                       # Read request sizes (log2)
system.mem_ctrls0.readPktSize::6               153017                       # Read request sizes (log2)
system.mem_ctrls0.writePktSize::0                   0                       # Write request sizes (log2)
system.mem_ctrls0.writePktSize::1                   0                       # Write request sizes (log2)
system.mem_ctrls0.writePktSize::2                   0                       # Write request sizes (log2)
system.mem_ctrls0.writePktSize::3                   0                       # Write request sizes (log2)
system.mem_ctrls0.writePktSize::4                   0                       # Write request sizes (log2)
system.mem_ctrls0.writePktSize::5                   0                       # Write request sizes (log2)
system.mem_ctrls0.writePktSize::6               92338                       # Write request sizes (log2)
system.mem_ctrls0.rdQLenPdf::0                 152936                       # What read queue length does an incoming req see
system.mem_ctrls0.rdQLenPdf::1                     72                       # What read queue length does an incoming req see
system.mem_ctrls0.rdQLenPdf::2                      0                       # What read queue length does an incoming req see
system.mem_ctrls0.rdQLenPdf::3                      0                       # What read queue length does an incoming req see
system.mem_ctrls0.rdQLenPdf::4                      0                       # What read queue length does an incoming req see
system.mem_ctrls0.rdQLenPdf::5                      0                       # What read queue length does an incoming req see
system.mem_ctrls0.rdQLenPdf::6                      0                       # What read queue length does an incoming req see
system.mem_ctrls0.rdQLenPdf::7                      0                       # What read queue length does an incoming req see
system.mem_ctrls0.rdQLenPdf::8                      0                       # What read queue length does an incoming req see
system.mem_ctrls0.rdQLenPdf::9                      0                       # What read queue length does an incoming req see
system.mem_ctrls0.rdQLenPdf::10                     0                       # What read queue length does an incoming req see
system.mem_ctrls0.rdQLenPdf::11                     0                       # What read queue length does an incoming req see
system.mem_ctrls0.rdQLenPdf::12                     0                       # What read queue length does an incoming req see
system.mem_ctrls0.rdQLenPdf::13                     0                       # What read queue length does an incoming req see
system.mem_ctrls0.rdQLenPdf::14                     0                       # What read queue length does an incoming req see
system.mem_ctrls0.rdQLenPdf::15                     0                       # What read queue length does an incoming req see
system.mem_ctrls0.rdQLenPdf::16                     0                       # What read queue length does an incoming req see
system.mem_ctrls0.rdQLenPdf::17                     0                       # What read queue length does an incoming req see
system.mem_ctrls0.rdQLenPdf::18                     0                       # What read queue length does an incoming req see
system.mem_ctrls0.rdQLenPdf::19                     0                       # What read queue length does an incoming req see
system.mem_ctrls0.rdQLenPdf::20                     0                       # What read queue length does an incoming req see
system.mem_ctrls0.rdQLenPdf::21                     0                       # What read queue length does an incoming req see
system.mem_ctrls0.rdQLenPdf::22                     0                       # What read queue length does an incoming req see
system.mem_ctrls0.rdQLenPdf::23                     0                       # What read queue length does an incoming req see
system.mem_ctrls0.rdQLenPdf::24                     0                       # What read queue length does an incoming req see
system.mem_ctrls0.rdQLenPdf::25                     0                       # What read queue length does an incoming req see
system.mem_ctrls0.rdQLenPdf::26                     0                       # What read queue length does an incoming req see
system.mem_ctrls0.rdQLenPdf::27                     0                       # What read queue length does an incoming req see
system.mem_ctrls0.rdQLenPdf::28                     0                       # What read queue length does an incoming req see
system.mem_ctrls0.rdQLenPdf::29                     0                       # What read queue length does an incoming req see
system.mem_ctrls0.rdQLenPdf::30                     0                       # What read queue length does an incoming req see
system.mem_ctrls0.rdQLenPdf::31                     0                       # What read queue length does an incoming req see
system.mem_ctrls0.wrQLenPdf::0                      2                       # What write queue length does an incoming req see
system.mem_ctrls0.wrQLenPdf::1                      2                       # What write queue length does an incoming req see
system.mem_ctrls0.wrQLenPdf::2                      2                       # What write queue length does an incoming req see
system.mem_ctrls0.wrQLenPdf::3                      2                       # What write queue length does an incoming req see
system.mem_ctrls0.wrQLenPdf::4                      2                       # What write queue length does an incoming req see
system.mem_ctrls0.wrQLenPdf::5                      2                       # What write queue length does an incoming req see
system.mem_ctrls0.wrQLenPdf::6                      2                       # What write queue length does an incoming req see
system.mem_ctrls0.wrQLenPdf::7                      2                       # What write queue length does an incoming req see
system.mem_ctrls0.wrQLenPdf::8                      2                       # What write queue length does an incoming req see
system.mem_ctrls0.wrQLenPdf::9                      2                       # What write queue length does an incoming req see
system.mem_ctrls0.wrQLenPdf::10                     2                       # What write queue length does an incoming req see
system.mem_ctrls0.wrQLenPdf::11                     2                       # What write queue length does an incoming req see
system.mem_ctrls0.wrQLenPdf::12                     2                       # What write queue length does an incoming req see
system.mem_ctrls0.wrQLenPdf::13                     2                       # What write queue length does an incoming req see
system.mem_ctrls0.wrQLenPdf::14                     2                       # What write queue length does an incoming req see
system.mem_ctrls0.wrQLenPdf::15                  4331                       # What write queue length does an incoming req see
system.mem_ctrls0.wrQLenPdf::16                  4429                       # What write queue length does an incoming req see
system.mem_ctrls0.wrQLenPdf::17                  5203                       # What write queue length does an incoming req see
system.mem_ctrls0.wrQLenPdf::18                  5223                       # What write queue length does an incoming req see
system.mem_ctrls0.wrQLenPdf::19                  5223                       # What write queue length does an incoming req see
system.mem_ctrls0.wrQLenPdf::20                  5219                       # What write queue length does an incoming req see
system.mem_ctrls0.wrQLenPdf::21                  5219                       # What write queue length does an incoming req see
system.mem_ctrls0.wrQLenPdf::22                  5219                       # What write queue length does an incoming req see
system.mem_ctrls0.wrQLenPdf::23                  5219                       # What write queue length does an incoming req see
system.mem_ctrls0.wrQLenPdf::24                  5225                       # What write queue length does an incoming req see
system.mem_ctrls0.wrQLenPdf::25                  5217                       # What write queue length does an incoming req see
system.mem_ctrls0.wrQLenPdf::26                  5268                       # What write queue length does an incoming req see
system.mem_ctrls0.wrQLenPdf::27                  5252                       # What write queue length does an incoming req see
system.mem_ctrls0.wrQLenPdf::28                  5209                       # What write queue length does an incoming req see
system.mem_ctrls0.wrQLenPdf::29                  5210                       # What write queue length does an incoming req see
system.mem_ctrls0.wrQLenPdf::30                  5210                       # What write queue length does an incoming req see
system.mem_ctrls0.wrQLenPdf::31                  5209                       # What write queue length does an incoming req see
system.mem_ctrls0.wrQLenPdf::32                  5209                       # What write queue length does an incoming req see
system.mem_ctrls0.wrQLenPdf::33                    13                       # What write queue length does an incoming req see
system.mem_ctrls0.wrQLenPdf::34                     1                       # What write queue length does an incoming req see
system.mem_ctrls0.wrQLenPdf::35                     0                       # What write queue length does an incoming req see
system.mem_ctrls0.wrQLenPdf::36                     0                       # What write queue length does an incoming req see
system.mem_ctrls0.wrQLenPdf::37                     0                       # What write queue length does an incoming req see
system.mem_ctrls0.wrQLenPdf::38                     0                       # What write queue length does an incoming req see
system.mem_ctrls0.wrQLenPdf::39                     0                       # What write queue length does an incoming req see
system.mem_ctrls0.wrQLenPdf::40                     0                       # What write queue length does an incoming req see
system.mem_ctrls0.wrQLenPdf::41                     0                       # What write queue length does an incoming req see
system.mem_ctrls0.wrQLenPdf::42                     0                       # What write queue length does an incoming req see
system.mem_ctrls0.wrQLenPdf::43                     0                       # What write queue length does an incoming req see
system.mem_ctrls0.wrQLenPdf::44                     0                       # What write queue length does an incoming req see
system.mem_ctrls0.wrQLenPdf::45                     0                       # What write queue length does an incoming req see
system.mem_ctrls0.wrQLenPdf::46                     0                       # What write queue length does an incoming req see
system.mem_ctrls0.wrQLenPdf::47                     0                       # What write queue length does an incoming req see
system.mem_ctrls0.wrQLenPdf::48                     0                       # What write queue length does an incoming req see
system.mem_ctrls0.wrQLenPdf::49                     0                       # What write queue length does an incoming req see
system.mem_ctrls0.wrQLenPdf::50                     0                       # What write queue length does an incoming req see
system.mem_ctrls0.wrQLenPdf::51                     0                       # What write queue length does an incoming req see
system.mem_ctrls0.wrQLenPdf::52                     0                       # What write queue length does an incoming req see
system.mem_ctrls0.wrQLenPdf::53                     0                       # What write queue length does an incoming req see
system.mem_ctrls0.wrQLenPdf::54                     0                       # What write queue length does an incoming req see
system.mem_ctrls0.wrQLenPdf::55                     0                       # What write queue length does an incoming req see
system.mem_ctrls0.wrQLenPdf::56                     0                       # What write queue length does an incoming req see
system.mem_ctrls0.wrQLenPdf::57                     0                       # What write queue length does an incoming req see
system.mem_ctrls0.wrQLenPdf::58                     0                       # What write queue length does an incoming req see
system.mem_ctrls0.wrQLenPdf::59                     0                       # What write queue length does an incoming req see
system.mem_ctrls0.wrQLenPdf::60                     0                       # What write queue length does an incoming req see
system.mem_ctrls0.wrQLenPdf::61                     0                       # What write queue length does an incoming req see
system.mem_ctrls0.wrQLenPdf::62                     0                       # What write queue length does an incoming req see
system.mem_ctrls0.wrQLenPdf::63                     0                       # What write queue length does an incoming req see
system.mem_ctrls0.bytesPerActivate::samples       241442                       # Bytes accessed per row activation
system.mem_ctrls0.bytesPerActivate::mean    65.026897                       # Bytes accessed per row activation
system.mem_ctrls0.bytesPerActivate::gmean    64.674865                       # Bytes accessed per row activation
system.mem_ctrls0.bytesPerActivate::stdev     9.934714                       # Bytes accessed per row activation
system.mem_ctrls0.bytesPerActivate::0-127       237951     98.55%     98.55% # Bytes accessed per row activation
system.mem_ctrls0.bytesPerActivate::128-255         3403      1.41%     99.96% # Bytes accessed per row activation
system.mem_ctrls0.bytesPerActivate::256-383           55      0.02%     99.99% # Bytes accessed per row activation
system.mem_ctrls0.bytesPerActivate::384-511           20      0.01%     99.99% # Bytes accessed per row activation
system.mem_ctrls0.bytesPerActivate::512-639            9      0.00%    100.00% # Bytes accessed per row activation
system.mem_ctrls0.bytesPerActivate::640-767            1      0.00%    100.00% # Bytes accessed per row activation
system.mem_ctrls0.bytesPerActivate::768-895            1      0.00%    100.00% # Bytes accessed per row activation
system.mem_ctrls0.bytesPerActivate::896-1023            1      0.00%    100.00% # Bytes accessed per row activation
system.mem_ctrls0.bytesPerActivate::1024-1151            1      0.00%    100.00% # Bytes accessed per row activation
system.mem_ctrls0.bytesPerActivate::total       241442                       # Bytes accessed per row activation
system.mem_ctrls0.rdPerTurnAround::samples         5210                       # Reads before turning the bus around for writes
system.mem_ctrls0.rdPerTurnAround::mean     29.365643                       # Reads before turning the bus around for writes
system.mem_ctrls0.rdPerTurnAround::gmean    23.313736                       # Reads before turning the bus around for writes
system.mem_ctrls0.rdPerTurnAround::stdev   322.537396                       # Reads before turning the bus around for writes
system.mem_ctrls0.rdPerTurnAround::0-1023         5209     99.98%     99.98% # Reads before turning the bus around for writes
system.mem_ctrls0.rdPerTurnAround::22528-23551            1      0.02%    100.00% # Reads before turning the bus around for writes
system.mem_ctrls0.rdPerTurnAround::total         5210                       # Reads before turning the bus around for writes
system.mem_ctrls0.wrPerTurnAround::samples         5210                       # Writes before turning the bus around for reads
system.mem_ctrls0.wrPerTurnAround::mean     17.717850                       # Writes before turning the bus around for reads
system.mem_ctrls0.wrPerTurnAround::gmean    17.700582                       # Writes before turning the bus around for reads
system.mem_ctrls0.wrPerTurnAround::stdev     0.764850                       # Writes before turning the bus around for reads
system.mem_ctrls0.wrPerTurnAround::16             791     15.18%     15.18% # Writes before turning the bus around for reads
system.mem_ctrls0.wrPerTurnAround::17              82      1.57%     16.76% # Writes before turning the bus around for reads
system.mem_ctrls0.wrPerTurnAround::18            4151     79.67%     96.43% # Writes before turning the bus around for reads
system.mem_ctrls0.wrPerTurnAround::19             180      3.45%     99.88% # Writes before turning the bus around for reads
system.mem_ctrls0.wrPerTurnAround::20               5      0.10%     99.98% # Writes before turning the bus around for reads
system.mem_ctrls0.wrPerTurnAround::22               1      0.02%    100.00% # Writes before turning the bus around for reads
system.mem_ctrls0.wrPerTurnAround::total         5210                       # Writes before turning the bus around for reads
system.mem_ctrls0.totQLat                 27542774799                       # Total ticks spent queuing
system.mem_ctrls0.totMemAccLat            30411674799                       # Total ticks spent from burst creation until serviced by the DRAM
system.mem_ctrls0.totBusLat                 765040000                       # Total ticks spent in databus transfers
system.mem_ctrls0.avgQLat                   180008.72                       # Average queueing delay per DRAM burst
system.mem_ctrls0.avgBusLat                   5000.00                       # Average bus latency per DRAM burst
system.mem_ctrls0.avgMemAccLat              198758.72                       # Average memory access latency per DRAM burst
system.mem_ctrls0.avgRdBW                        9.65                       # Average DRAM read bandwidth in MiByte/s
system.mem_ctrls0.avgWrBW                        5.82                       # Average achieved write bandwidth in MiByte/s
system.mem_ctrls0.avgRdBWSys                     9.65                       # Average system read bandwidth in MiByte/s
system.mem_ctrls0.avgWrBWSys                     5.82                       # Average system write bandwidth in MiByte/s
system.mem_ctrls0.peakBW                     12800.00                       # Theoretical peak bandwidth in MiByte/s
system.mem_ctrls0.busUtil                        0.12                       # Data bus utilization in percentage
system.mem_ctrls0.busUtilRead                    0.08                       # Data bus utilization in percentage for reads
system.mem_ctrls0.busUtilWrite                   0.05                       # Data bus utilization in percentage for writes
system.mem_ctrls0.avgRdQLen                      1.00                       # Average read queue length when enqueuing
system.mem_ctrls0.avgWrQLen                     20.92                       # Average write queue length when enqueuing
system.mem_ctrls0.readRowHits                    3389                       # Number of row buffer hits during reads
system.mem_ctrls0.writeRowHits                    485                       # Number of row buffer hits during writes
system.mem_ctrls0.readRowHitRate                 2.21                       # Row buffer hit rate for reads
system.mem_ctrls0.writeRowHitRate                0.53                       # Row buffer hit rate for writes
system.mem_ctrls0.avgGap                   4137222.48                       # Average gap between requests
system.mem_ctrls0.pageHitRate                    1.58                       # Row buffer hit rate, read and write combined
system.mem_ctrls0_0.actEnergy               864097080                       # Energy for activate commands per rank (pJ)
system.mem_ctrls0_0.preEnergy               459274695                       # Energy for precharge commands per rank (pJ)
system.mem_ctrls0_0.readEnergy              548973180                       # Energy for read commands per rank (pJ)
system.mem_ctrls0_0.writeEnergy             241398900                       # Energy for write commands per rank (pJ)
system.mem_ctrls0_0.refreshEnergy        58404936720.000015                       # Energy for refresh commands per rank (pJ)
system.mem_ctrls0_0.actBackEnergy         18804228750                       # Energy for active background per rank (pJ)
system.mem_ctrls0_0.preBackEnergy          3320121120                       # Energy for precharge background per rank (pJ)
system.mem_ctrls0_0.actPowerDownEnergy   120517233510                       # Energy for active power-down per rank (pJ)
system.mem_ctrls0_0.prePowerDownEnergy    97044016320                       # Energy for precharge power-down per rank (pJ)
system.mem_ctrls0_0.selfRefreshEnergy    120749240295                       # Energy for self refresh per rank (pJ)
system.mem_ctrls0_0.totalEnergy          420981512940                       # Total energy per rank (pJ)
system.mem_ctrls0_0.averagePower           414.723789                       # Core power per rank (mW)
system.mem_ctrls0_0.totalIdleTime        965142941103                       # Total Idle time Per DRAM Rank
system.mem_ctrls0_0.memoryStateTime::IDLE   6582454052                       # Time in different power states
system.mem_ctrls0_0.memoryStateTime::REF  24851540000                       # Time in different power states
system.mem_ctrls0_0.memoryStateTime::SREF 448132168221                       # Time in different power states
system.mem_ctrls0_0.memoryStateTime::PRE_PDN 252718976884                       # Time in different power states
system.mem_ctrls0_0.memoryStateTime::ACT  18511377300                       # Time in different power states
system.mem_ctrls0_0.memoryStateTime::ACT_PDN 264292367221                       # Time in different power states
system.mem_ctrls0_1.actEnergy               859813080                       # Energy for activate commands per rank (pJ)
system.mem_ctrls0_1.preEnergy               456997695                       # Energy for precharge commands per rank (pJ)
system.mem_ctrls0_1.readEnergy              543503940                       # Energy for read commands per rank (pJ)
system.mem_ctrls0_1.writeEnergy             240459300                       # Energy for write commands per rank (pJ)
system.mem_ctrls0_1.refreshEnergy        58055821200.000015                       # Energy for refresh commands per rank (pJ)
system.mem_ctrls0_1.actBackEnergy         18679826250                       # Energy for active background per rank (pJ)
system.mem_ctrls0_1.preBackEnergy          3313155360                       # Energy for precharge background per rank (pJ)
system.mem_ctrls0_1.actPowerDownEnergy   119564016240                       # Energy for active power-down per rank (pJ)
system.mem_ctrls0_1.prePowerDownEnergy    96616590240                       # Energy for precharge power-down per rank (pJ)
system.mem_ctrls0_1.selfRefreshEnergy    121516689930                       # Energy for self refresh per rank (pJ)
system.mem_ctrls0_1.totalEnergy          419873024475                       # Total energy per rank (pJ)
system.mem_ctrls0_1.averagePower           413.631775                       # Core power per rank (mW)
system.mem_ctrls0_1.totalIdleTime        965436036068                       # Total Idle time Per DRAM Rank
system.mem_ctrls0_1.memoryStateTime::IDLE   6562600888                       # Time in different power states
system.mem_ctrls0_1.memoryStateTime::REF  24703068000                       # Time in different power states
system.mem_ctrls0_1.memoryStateTime::SREF 451630763285                       # Time in different power states
system.mem_ctrls0_1.memoryStateTime::PRE_PDN 251605650266                       # Time in different power states
system.mem_ctrls0_1.memoryStateTime::ACT  18384726382                       # Time in different power states
system.mem_ctrls0_1.memoryStateTime::ACT_PDN 262202074857                       # Time in different power states
system.mem_ctrls1.pwrStateResidencyTicks::UNDEFINED 400904058490146                       # Cumulative time (in ticks) in various power states
system.mem_ctrls1.bytes_read::cpu.inst            128                       # Number of bytes read from this memory
system.mem_ctrls1.bytes_read::cpu.data            128                       # Number of bytes read from this memory
system.mem_ctrls1.bytes_read::switch_cpus.inst        21760                       # Number of bytes read from this memory
system.mem_ctrls1.bytes_read::switch_cpus.data      8165120                       # Number of bytes read from this memory
system.mem_ctrls1.bytes_read::switch_cpus_1.inst         3200                       # Number of bytes read from this memory
system.mem_ctrls1.bytes_read::switch_cpus_1.data      1621952                       # Number of bytes read from this memory
system.mem_ctrls1.bytes_read::total           9812288                       # Number of bytes read from this memory
system.mem_ctrls1.bytes_inst_read::cpu.inst          128                       # Number of instructions bytes read from this memory
system.mem_ctrls1.bytes_inst_read::switch_cpus.inst        21760                       # Number of instructions bytes read from this memory
system.mem_ctrls1.bytes_inst_read::switch_cpus_1.inst         3200                       # Number of instructions bytes read from this memory
system.mem_ctrls1.bytes_inst_read::total        25088                       # Number of instructions bytes read from this memory
system.mem_ctrls1.bytes_written::writebacks      5923584                       # Number of bytes written to this memory
system.mem_ctrls1.bytes_written::total        5923584                       # Number of bytes written to this memory
system.mem_ctrls1.num_reads::cpu.inst               2                       # Number of read requests responded to by this memory
system.mem_ctrls1.num_reads::cpu.data               2                       # Number of read requests responded to by this memory
system.mem_ctrls1.num_reads::switch_cpus.inst          340                       # Number of read requests responded to by this memory
system.mem_ctrls1.num_reads::switch_cpus.data       127580                       # Number of read requests responded to by this memory
system.mem_ctrls1.num_reads::switch_cpus_1.inst           50                       # Number of read requests responded to by this memory
system.mem_ctrls1.num_reads::switch_cpus_1.data        25343                       # Number of read requests responded to by this memory
system.mem_ctrls1.num_reads::total             153317                       # Number of read requests responded to by this memory
system.mem_ctrls1.num_writes::writebacks        92556                       # Number of write requests responded to by this memory
system.mem_ctrls1.num_writes::total             92556                       # Number of write requests responded to by this memory
system.mem_ctrls1.bw_read::cpu.inst               126                       # Total read bandwidth from this memory (bytes/s)
system.mem_ctrls1.bw_read::cpu.data               126                       # Total read bandwidth from this memory (bytes/s)
system.mem_ctrls1.bw_read::switch_cpus.inst        21437                       # Total read bandwidth from this memory (bytes/s)
system.mem_ctrls1.bw_read::switch_cpus.data      8043749                       # Total read bandwidth from this memory (bytes/s)
system.mem_ctrls1.bw_read::switch_cpus_1.inst         3152                       # Total read bandwidth from this memory (bytes/s)
system.mem_ctrls1.bw_read::switch_cpus_1.data      1597842                       # Total read bandwidth from this memory (bytes/s)
system.mem_ctrls1.bw_read::total              9666432                       # Total read bandwidth from this memory (bytes/s)
system.mem_ctrls1.bw_inst_read::cpu.inst          126                       # Instruction read bandwidth from this memory (bytes/s)
system.mem_ctrls1.bw_inst_read::switch_cpus.inst        21437                       # Instruction read bandwidth from this memory (bytes/s)
system.mem_ctrls1.bw_inst_read::switch_cpus_1.inst         3152                       # Instruction read bandwidth from this memory (bytes/s)
system.mem_ctrls1.bw_inst_read::total           24715                       # Instruction read bandwidth from this memory (bytes/s)
system.mem_ctrls1.bw_write::writebacks        5835532                       # Write bandwidth from this memory (bytes/s)
system.mem_ctrls1.bw_write::total             5835532                       # Write bandwidth from this memory (bytes/s)
system.mem_ctrls1.bw_total::writebacks        5835532                       # Total bandwidth to/from this memory (bytes/s)
system.mem_ctrls1.bw_total::cpu.inst              126                       # Total bandwidth to/from this memory (bytes/s)
system.mem_ctrls1.bw_total::cpu.data              126                       # Total bandwidth to/from this memory (bytes/s)
system.mem_ctrls1.bw_total::switch_cpus.inst        21437                       # Total bandwidth to/from this memory (bytes/s)
system.mem_ctrls1.bw_total::switch_cpus.data      8043749                       # Total bandwidth to/from this memory (bytes/s)
system.mem_ctrls1.bw_total::switch_cpus_1.inst         3152                       # Total bandwidth to/from this memory (bytes/s)
system.mem_ctrls1.bw_total::switch_cpus_1.data      1597842                       # Total bandwidth to/from this memory (bytes/s)
system.mem_ctrls1.bw_total::total            15501965                       # Total bandwidth to/from this memory (bytes/s)
system.mem_ctrls1.readReqs                     153317                       # Number of read requests accepted
system.mem_ctrls1.writeReqs                     92556                       # Number of write requests accepted
system.mem_ctrls1.readBursts                   153317                       # Number of DRAM read bursts, including those serviced by the write queue
system.mem_ctrls1.writeBursts                   92556                       # Number of DRAM write bursts, including those merged in the write queue
system.mem_ctrls1.bytesReadDRAM               9811968                       # Total number of bytes read from DRAM
system.mem_ctrls1.bytesReadWrQ                    320                       # Total number of bytes read from write queue
system.mem_ctrls1.bytesWritten                5921664                       # Total number of bytes written to DRAM
system.mem_ctrls1.bytesReadSys                9812288                       # Total read bytes from the system interface side
system.mem_ctrls1.bytesWrittenSys             5923584                       # Total written bytes from the system interface side
system.mem_ctrls1.servicedByWrQ                     5                       # Number of DRAM read bursts serviced by the write queue
system.mem_ctrls1.mergedWrBursts                    0                       # Number of DRAM write bursts merged with an existing one
system.mem_ctrls1.neitherReadNorWriteReqs            0                       # Number of requests that are neither read nor write
system.mem_ctrls1.perBankRdBursts::0             9524                       # Per bank write bursts
system.mem_ctrls1.perBankRdBursts::1             9719                       # Per bank write bursts
system.mem_ctrls1.perBankRdBursts::2             9611                       # Per bank write bursts
system.mem_ctrls1.perBankRdBursts::3             9761                       # Per bank write bursts
system.mem_ctrls1.perBankRdBursts::4             9680                       # Per bank write bursts
system.mem_ctrls1.perBankRdBursts::5             9558                       # Per bank write bursts
system.mem_ctrls1.perBankRdBursts::6             9440                       # Per bank write bursts
system.mem_ctrls1.perBankRdBursts::7             9649                       # Per bank write bursts
system.mem_ctrls1.perBankRdBursts::8             9371                       # Per bank write bursts
system.mem_ctrls1.perBankRdBursts::9             9835                       # Per bank write bursts
system.mem_ctrls1.perBankRdBursts::10            9573                       # Per bank write bursts
system.mem_ctrls1.perBankRdBursts::11            9563                       # Per bank write bursts
system.mem_ctrls1.perBankRdBursts::12            9432                       # Per bank write bursts
system.mem_ctrls1.perBankRdBursts::13            9506                       # Per bank write bursts
system.mem_ctrls1.perBankRdBursts::14            9456                       # Per bank write bursts
system.mem_ctrls1.perBankRdBursts::15            9634                       # Per bank write bursts
system.mem_ctrls1.perBankWrBursts::0             5761                       # Per bank write bursts
system.mem_ctrls1.perBankWrBursts::1             5745                       # Per bank write bursts
system.mem_ctrls1.perBankWrBursts::2             5764                       # Per bank write bursts
system.mem_ctrls1.perBankWrBursts::3             5879                       # Per bank write bursts
system.mem_ctrls1.perBankWrBursts::4             5777                       # Per bank write bursts
system.mem_ctrls1.perBankWrBursts::5             5754                       # Per bank write bursts
system.mem_ctrls1.perBankWrBursts::6             5656                       # Per bank write bursts
system.mem_ctrls1.perBankWrBursts::7             5816                       # Per bank write bursts
system.mem_ctrls1.perBankWrBursts::8             5643                       # Per bank write bursts
system.mem_ctrls1.perBankWrBursts::9             5963                       # Per bank write bursts
system.mem_ctrls1.perBankWrBursts::10            5850                       # Per bank write bursts
system.mem_ctrls1.perBankWrBursts::11            5822                       # Per bank write bursts
system.mem_ctrls1.perBankWrBursts::12            5743                       # Per bank write bursts
system.mem_ctrls1.perBankWrBursts::13            5743                       # Per bank write bursts
system.mem_ctrls1.perBankWrBursts::14            5726                       # Per bank write bursts
system.mem_ctrls1.perBankWrBursts::15            5884                       # Per bank write bursts
system.mem_ctrls1.numRdRetry                        0                       # Number of times read queue was full causing retry
system.mem_ctrls1.numWrRetry                        0                       # Number of times write queue was full causing retry
system.mem_ctrls1.totGap                 1015088795433                       # Total gap between requests
system.mem_ctrls1.readPktSize::0                    0                       # Read request sizes (log2)
system.mem_ctrls1.readPktSize::1                    0                       # Read request sizes (log2)
system.mem_ctrls1.readPktSize::2                    0                       # Read request sizes (log2)
system.mem_ctrls1.readPktSize::3                    0                       # Read request sizes (log2)
system.mem_ctrls1.readPktSize::4                    0                       # Read request sizes (log2)
system.mem_ctrls1.readPktSize::5                    0                       # Read request sizes (log2)
system.mem_ctrls1.readPktSize::6               153317                       # Read request sizes (log2)
system.mem_ctrls1.writePktSize::0                   0                       # Write request sizes (log2)
system.mem_ctrls1.writePktSize::1                   0                       # Write request sizes (log2)
system.mem_ctrls1.writePktSize::2                   0                       # Write request sizes (log2)
system.mem_ctrls1.writePktSize::3                   0                       # Write request sizes (log2)
system.mem_ctrls1.writePktSize::4                   0                       # Write request sizes (log2)
system.mem_ctrls1.writePktSize::5                   0                       # Write request sizes (log2)
system.mem_ctrls1.writePktSize::6               92556                       # Write request sizes (log2)
system.mem_ctrls1.rdQLenPdf::0                 153226                       # What read queue length does an incoming req see
system.mem_ctrls1.rdQLenPdf::1                     84                       # What read queue length does an incoming req see
system.mem_ctrls1.rdQLenPdf::2                      1                       # What read queue length does an incoming req see
system.mem_ctrls1.rdQLenPdf::3                      1                       # What read queue length does an incoming req see
system.mem_ctrls1.rdQLenPdf::4                      0                       # What read queue length does an incoming req see
system.mem_ctrls1.rdQLenPdf::5                      0                       # What read queue length does an incoming req see
system.mem_ctrls1.rdQLenPdf::6                      0                       # What read queue length does an incoming req see
system.mem_ctrls1.rdQLenPdf::7                      0                       # What read queue length does an incoming req see
system.mem_ctrls1.rdQLenPdf::8                      0                       # What read queue length does an incoming req see
system.mem_ctrls1.rdQLenPdf::9                      0                       # What read queue length does an incoming req see
system.mem_ctrls1.rdQLenPdf::10                     0                       # What read queue length does an incoming req see
system.mem_ctrls1.rdQLenPdf::11                     0                       # What read queue length does an incoming req see
system.mem_ctrls1.rdQLenPdf::12                     0                       # What read queue length does an incoming req see
system.mem_ctrls1.rdQLenPdf::13                     0                       # What read queue length does an incoming req see
system.mem_ctrls1.rdQLenPdf::14                     0                       # What read queue length does an incoming req see
system.mem_ctrls1.rdQLenPdf::15                     0                       # What read queue length does an incoming req see
system.mem_ctrls1.rdQLenPdf::16                     0                       # What read queue length does an incoming req see
system.mem_ctrls1.rdQLenPdf::17                     0                       # What read queue length does an incoming req see
system.mem_ctrls1.rdQLenPdf::18                     0                       # What read queue length does an incoming req see
system.mem_ctrls1.rdQLenPdf::19                     0                       # What read queue length does an incoming req see
system.mem_ctrls1.rdQLenPdf::20                     0                       # What read queue length does an incoming req see
system.mem_ctrls1.rdQLenPdf::21                     0                       # What read queue length does an incoming req see
system.mem_ctrls1.rdQLenPdf::22                     0                       # What read queue length does an incoming req see
system.mem_ctrls1.rdQLenPdf::23                     0                       # What read queue length does an incoming req see
system.mem_ctrls1.rdQLenPdf::24                     0                       # What read queue length does an incoming req see
system.mem_ctrls1.rdQLenPdf::25                     0                       # What read queue length does an incoming req see
system.mem_ctrls1.rdQLenPdf::26                     0                       # What read queue length does an incoming req see
system.mem_ctrls1.rdQLenPdf::27                     0                       # What read queue length does an incoming req see
system.mem_ctrls1.rdQLenPdf::28                     0                       # What read queue length does an incoming req see
system.mem_ctrls1.rdQLenPdf::29                     0                       # What read queue length does an incoming req see
system.mem_ctrls1.rdQLenPdf::30                     0                       # What read queue length does an incoming req see
system.mem_ctrls1.rdQLenPdf::31                     0                       # What read queue length does an incoming req see
system.mem_ctrls1.wrQLenPdf::0                      2                       # What write queue length does an incoming req see
system.mem_ctrls1.wrQLenPdf::1                      2                       # What write queue length does an incoming req see
system.mem_ctrls1.wrQLenPdf::2                      2                       # What write queue length does an incoming req see
system.mem_ctrls1.wrQLenPdf::3                      2                       # What write queue length does an incoming req see
system.mem_ctrls1.wrQLenPdf::4                      2                       # What write queue length does an incoming req see
system.mem_ctrls1.wrQLenPdf::5                      2                       # What write queue length does an incoming req see
system.mem_ctrls1.wrQLenPdf::6                      2                       # What write queue length does an incoming req see
system.mem_ctrls1.wrQLenPdf::7                      2                       # What write queue length does an incoming req see
system.mem_ctrls1.wrQLenPdf::8                      2                       # What write queue length does an incoming req see
system.mem_ctrls1.wrQLenPdf::9                      2                       # What write queue length does an incoming req see
system.mem_ctrls1.wrQLenPdf::10                     2                       # What write queue length does an incoming req see
system.mem_ctrls1.wrQLenPdf::11                     2                       # What write queue length does an incoming req see
system.mem_ctrls1.wrQLenPdf::12                     2                       # What write queue length does an incoming req see
system.mem_ctrls1.wrQLenPdf::13                     2                       # What write queue length does an incoming req see
system.mem_ctrls1.wrQLenPdf::14                     2                       # What write queue length does an incoming req see
system.mem_ctrls1.wrQLenPdf::15                  4325                       # What write queue length does an incoming req see
system.mem_ctrls1.wrQLenPdf::16                  4411                       # What write queue length does an incoming req see
system.mem_ctrls1.wrQLenPdf::17                  5215                       # What write queue length does an incoming req see
system.mem_ctrls1.wrQLenPdf::18                  5236                       # What write queue length does an incoming req see
system.mem_ctrls1.wrQLenPdf::19                  5235                       # What write queue length does an incoming req see
system.mem_ctrls1.wrQLenPdf::20                  5231                       # What write queue length does an incoming req see
system.mem_ctrls1.wrQLenPdf::21                  5234                       # What write queue length does an incoming req see
system.mem_ctrls1.wrQLenPdf::22                  5235                       # What write queue length does an incoming req see
system.mem_ctrls1.wrQLenPdf::23                  5236                       # What write queue length does an incoming req see
system.mem_ctrls1.wrQLenPdf::24                  5235                       # What write queue length does an incoming req see
system.mem_ctrls1.wrQLenPdf::25                  5240                       # What write queue length does an incoming req see
system.mem_ctrls1.wrQLenPdf::26                  5285                       # What write queue length does an incoming req see
system.mem_ctrls1.wrQLenPdf::27                  5251                       # What write queue length does an incoming req see
system.mem_ctrls1.wrQLenPdf::28                  5227                       # What write queue length does an incoming req see
system.mem_ctrls1.wrQLenPdf::29                  5228                       # What write queue length does an incoming req see
system.mem_ctrls1.wrQLenPdf::30                  5226                       # What write queue length does an incoming req see
system.mem_ctrls1.wrQLenPdf::31                  5224                       # What write queue length does an incoming req see
system.mem_ctrls1.wrQLenPdf::32                  5224                       # What write queue length does an incoming req see
system.mem_ctrls1.wrQLenPdf::33                    26                       # What write queue length does an incoming req see
system.mem_ctrls1.wrQLenPdf::34                     2                       # What write queue length does an incoming req see
system.mem_ctrls1.wrQLenPdf::35                     0                       # What write queue length does an incoming req see
system.mem_ctrls1.wrQLenPdf::36                     0                       # What write queue length does an incoming req see
system.mem_ctrls1.wrQLenPdf::37                     0                       # What write queue length does an incoming req see
system.mem_ctrls1.wrQLenPdf::38                     0                       # What write queue length does an incoming req see
system.mem_ctrls1.wrQLenPdf::39                     0                       # What write queue length does an incoming req see
system.mem_ctrls1.wrQLenPdf::40                     0                       # What write queue length does an incoming req see
system.mem_ctrls1.wrQLenPdf::41                     0                       # What write queue length does an incoming req see
system.mem_ctrls1.wrQLenPdf::42                     0                       # What write queue length does an incoming req see
system.mem_ctrls1.wrQLenPdf::43                     0                       # What write queue length does an incoming req see
system.mem_ctrls1.wrQLenPdf::44                     0                       # What write queue length does an incoming req see
system.mem_ctrls1.wrQLenPdf::45                     0                       # What write queue length does an incoming req see
system.mem_ctrls1.wrQLenPdf::46                     0                       # What write queue length does an incoming req see
system.mem_ctrls1.wrQLenPdf::47                     0                       # What write queue length does an incoming req see
system.mem_ctrls1.wrQLenPdf::48                     0                       # What write queue length does an incoming req see
system.mem_ctrls1.wrQLenPdf::49                     0                       # What write queue length does an incoming req see
system.mem_ctrls1.wrQLenPdf::50                     0                       # What write queue length does an incoming req see
system.mem_ctrls1.wrQLenPdf::51                     0                       # What write queue length does an incoming req see
system.mem_ctrls1.wrQLenPdf::52                     0                       # What write queue length does an incoming req see
system.mem_ctrls1.wrQLenPdf::53                     0                       # What write queue length does an incoming req see
system.mem_ctrls1.wrQLenPdf::54                     0                       # What write queue length does an incoming req see
system.mem_ctrls1.wrQLenPdf::55                     0                       # What write queue length does an incoming req see
system.mem_ctrls1.wrQLenPdf::56                     0                       # What write queue length does an incoming req see
system.mem_ctrls1.wrQLenPdf::57                     0                       # What write queue length does an incoming req see
system.mem_ctrls1.wrQLenPdf::58                     0                       # What write queue length does an incoming req see
system.mem_ctrls1.wrQLenPdf::59                     0                       # What write queue length does an incoming req see
system.mem_ctrls1.wrQLenPdf::60                     0                       # What write queue length does an incoming req see
system.mem_ctrls1.wrQLenPdf::61                     0                       # What write queue length does an incoming req see
system.mem_ctrls1.wrQLenPdf::62                     0                       # What write queue length does an incoming req see
system.mem_ctrls1.wrQLenPdf::63                     0                       # What write queue length does an incoming req see
system.mem_ctrls1.bytesPerActivate::samples       241893                       # Bytes accessed per row activation
system.mem_ctrls1.bytesPerActivate::mean    65.042709                       # Bytes accessed per row activation
system.mem_ctrls1.bytesPerActivate::gmean    64.684133                       # Bytes accessed per row activation
system.mem_ctrls1.bytesPerActivate::stdev    10.034843                       # Bytes accessed per row activation
system.mem_ctrls1.bytesPerActivate::64-127       238351     98.54%     98.54% # Bytes accessed per row activation
system.mem_ctrls1.bytesPerActivate::128-191         3383      1.40%     99.93% # Bytes accessed per row activation
system.mem_ctrls1.bytesPerActivate::192-255           71      0.03%     99.96% # Bytes accessed per row activation
system.mem_ctrls1.bytesPerActivate::256-319           29      0.01%     99.98% # Bytes accessed per row activation
system.mem_ctrls1.bytesPerActivate::320-383           21      0.01%     99.98% # Bytes accessed per row activation
system.mem_ctrls1.bytesPerActivate::384-447           18      0.01%     99.99% # Bytes accessed per row activation
system.mem_ctrls1.bytesPerActivate::448-511            9      0.00%    100.00% # Bytes accessed per row activation
system.mem_ctrls1.bytesPerActivate::512-575            2      0.00%    100.00% # Bytes accessed per row activation
system.mem_ctrls1.bytesPerActivate::576-639            4      0.00%    100.00% # Bytes accessed per row activation
system.mem_ctrls1.bytesPerActivate::640-703            1      0.00%    100.00% # Bytes accessed per row activation
system.mem_ctrls1.bytesPerActivate::704-767            1      0.00%    100.00% # Bytes accessed per row activation
system.mem_ctrls1.bytesPerActivate::768-831            2      0.00%    100.00% # Bytes accessed per row activation
system.mem_ctrls1.bytesPerActivate::960-1023            1      0.00%    100.00% # Bytes accessed per row activation
system.mem_ctrls1.bytesPerActivate::total       241893                       # Bytes accessed per row activation
system.mem_ctrls1.rdPerTurnAround::samples         5225                       # Reads before turning the bus around for writes
system.mem_ctrls1.rdPerTurnAround::mean     29.337799                       # Reads before turning the bus around for writes
system.mem_ctrls1.rdPerTurnAround::gmean    23.238512                       # Reads before turning the bus around for writes
system.mem_ctrls1.rdPerTurnAround::stdev   319.097185                       # Reads before turning the bus around for writes
system.mem_ctrls1.rdPerTurnAround::0-1023         5224     99.98%     99.98% # Reads before turning the bus around for writes
system.mem_ctrls1.rdPerTurnAround::22528-23551            1      0.02%    100.00% # Reads before turning the bus around for writes
system.mem_ctrls1.rdPerTurnAround::total         5225                       # Reads before turning the bus around for writes
system.mem_ctrls1.wrPerTurnAround::samples         5225                       # Writes before turning the bus around for reads
system.mem_ctrls1.wrPerTurnAround::mean     17.708325                       # Writes before turning the bus around for reads
system.mem_ctrls1.wrPerTurnAround::gmean    17.690595                       # Writes before turning the bus around for reads
system.mem_ctrls1.wrPerTurnAround::stdev     0.774978                       # Writes before turning the bus around for reads
system.mem_ctrls1.wrPerTurnAround::16             821     15.71%     15.71% # Writes before turning the bus around for reads
system.mem_ctrls1.wrPerTurnAround::17              79      1.51%     17.22% # Writes before turning the bus around for reads
system.mem_ctrls1.wrPerTurnAround::18            4138     79.20%     96.42% # Writes before turning the bus around for reads
system.mem_ctrls1.wrPerTurnAround::19             178      3.41%     99.83% # Writes before turning the bus around for reads
system.mem_ctrls1.wrPerTurnAround::20               8      0.15%     99.98% # Writes before turning the bus around for reads
system.mem_ctrls1.wrPerTurnAround::21               1      0.02%    100.00% # Writes before turning the bus around for reads
system.mem_ctrls1.wrPerTurnAround::total         5225                       # Writes before turning the bus around for reads
system.mem_ctrls1.totQLat                 27481008317                       # Total ticks spent queuing
system.mem_ctrls1.totMemAccLat            30355608317                       # Total ticks spent from burst creation until serviced by the DRAM
system.mem_ctrls1.totBusLat                 766560000                       # Total ticks spent in databus transfers
system.mem_ctrls1.avgQLat                   179248.91                       # Average queueing delay per DRAM burst
system.mem_ctrls1.avgBusLat                   5000.00                       # Average bus latency per DRAM burst
system.mem_ctrls1.avgMemAccLat              197998.91                       # Average memory access latency per DRAM burst
system.mem_ctrls1.avgRdBW                        9.67                       # Average DRAM read bandwidth in MiByte/s
system.mem_ctrls1.avgWrBW                        5.83                       # Average achieved write bandwidth in MiByte/s
system.mem_ctrls1.avgRdBWSys                     9.67                       # Average system read bandwidth in MiByte/s
system.mem_ctrls1.avgWrBWSys                     5.84                       # Average system write bandwidth in MiByte/s
system.mem_ctrls1.peakBW                     12800.00                       # Theoretical peak bandwidth in MiByte/s
system.mem_ctrls1.busUtil                        0.12                       # Data bus utilization in percentage
system.mem_ctrls1.busUtilRead                    0.08                       # Data bus utilization in percentage for reads
system.mem_ctrls1.busUtilWrite                   0.05                       # Data bus utilization in percentage for writes
system.mem_ctrls1.avgRdQLen                      1.00                       # Average read queue length when enqueuing
system.mem_ctrls1.avgWrQLen                     21.12                       # Average write queue length when enqueuing
system.mem_ctrls1.readRowHits                    3389                       # Number of row buffer hits during reads
system.mem_ctrls1.writeRowHits                    552                       # Number of row buffer hits during writes
system.mem_ctrls1.readRowHitRate                 2.21                       # Row buffer hit rate for reads
system.mem_ctrls1.writeRowHitRate                0.60                       # Row buffer hit rate for writes
system.mem_ctrls1.avgGap                   4128508.60                       # Average gap between requests
system.mem_ctrls1.pageHitRate                    1.60                       # Row buffer hit rate, read and write combined
system.mem_ctrls1_0.actEnergy               863661540                       # Energy for activate commands per rank (pJ)
system.mem_ctrls1_0.preEnergy               459039405                       # Energy for precharge commands per rank (pJ)
system.mem_ctrls1_0.readEnergy              549365880                       # Energy for read commands per rank (pJ)
system.mem_ctrls1_0.writeEnergy             240913440                       # Energy for write commands per rank (pJ)
system.mem_ctrls1_0.refreshEnergy        58192885920.000015                       # Energy for refresh commands per rank (pJ)
system.mem_ctrls1_0.actBackEnergy         18787101960                       # Energy for active background per rank (pJ)
system.mem_ctrls1_0.preBackEnergy          3312854400                       # Energy for precharge background per rank (pJ)
system.mem_ctrls1_0.actPowerDownEnergy   119951385960                       # Energy for active power-down per rank (pJ)
system.mem_ctrls1_0.prePowerDownEnergy    96736007520                       # Energy for precharge power-down per rank (pJ)
system.mem_ctrls1_0.selfRefreshEnergy    121208086395                       # Energy for self refresh per rank (pJ)
system.mem_ctrls1_0.totalEnergy          420324476370                       # Total energy per rank (pJ)
system.mem_ctrls1_0.averagePower           414.076521                       # Core power per rank (mW)
system.mem_ctrls1_0.totalIdleTime        965207741087                       # Total Idle time Per DRAM Rank
system.mem_ctrls1_0.memoryStateTime::IDLE   6560510734                       # Time in different power states
system.mem_ctrls1_0.memoryStateTime::REF  24761420000                       # Time in different power states
system.mem_ctrls1_0.memoryStateTime::SREF 450242208347                       # Time in different power states
system.mem_ctrls1_0.memoryStateTime::PRE_PDN 251916706148                       # Time in different power states
system.mem_ctrls1_0.memoryStateTime::ACT  18556595445                       # Time in different power states
system.mem_ctrls1_0.memoryStateTime::ACT_PDN 263051443004                       # Time in different power states
system.mem_ctrls1_1.actEnergy               863483040                       # Energy for activate commands per rank (pJ)
system.mem_ctrls1_1.preEnergy               458944530                       # Energy for precharge commands per rank (pJ)
system.mem_ctrls1_1.readEnergy              545281800                       # Energy for read commands per rank (pJ)
system.mem_ctrls1_1.writeEnergy             242072280                       # Energy for write commands per rank (pJ)
system.mem_ctrls1_1.refreshEnergy        58071801840.000015                       # Energy for refresh commands per rank (pJ)
system.mem_ctrls1_1.actBackEnergy         18700838730                       # Energy for active background per rank (pJ)
system.mem_ctrls1_1.preBackEnergy          3309966720                       # Energy for precharge background per rank (pJ)
system.mem_ctrls1_1.actPowerDownEnergy   120022207320                       # Energy for active power-down per rank (pJ)
system.mem_ctrls1_1.prePowerDownEnergy    96436679040                       # Energy for precharge power-down per rank (pJ)
system.mem_ctrls1_1.selfRefreshEnergy    121350954525                       # Energy for self refresh per rank (pJ)
system.mem_ctrls1_1.totalEnergy          420026655945                       # Total energy per rank (pJ)
system.mem_ctrls1_1.averagePower           413.783124                       # Core power per rank (mW)
system.mem_ctrls1_1.totalIdleTime        965403275139                       # Total Idle time Per DRAM Rank
system.mem_ctrls1_1.memoryStateTime::IDLE   6549443559                       # Time in different power states
system.mem_ctrls1_1.memoryStateTime::REF  24709504000                       # Time in different power states
system.mem_ctrls1_1.memoryStateTime::SREF 451060301265                       # Time in different power states
system.mem_ctrls1_1.memoryStateTime::PRE_PDN 251136999011                       # Time in different power states
system.mem_ctrls1_1.memoryStateTime::ACT  18426293553                       # Time in different power states
system.mem_ctrls1_1.memoryStateTime::ACT_PDN 263206342290                       # Time in different power states
system.pwrStateResidencyTicks::UNDEFINED 400904058490146                       # Cumulative time (in ticks) in various power states
system.cpu.branchPred.lookups                      33                       # Number of BP lookups
system.cpu.branchPred.condPredicted                32                       # Number of conditional branches predicted
system.cpu.branchPred.condIncorrect                 5                       # Number of conditional branches incorrect
system.cpu.branchPred.BTBLookups                    0                       # Number of BTB lookups
system.cpu.branchPred.BTBHits                       0                       # Number of BTB hits
system.cpu.branchPred.BTBCorrect                    0                       # Number of correct BTB predictions (this stat may not work properly.
system.cpu.branchPred.BTBHitPct                   nan                       # BTB Hit Percentage
system.cpu.branchPred.usedRAS                       1                       # Number of times the RAS was used to get a target.
system.cpu.branchPred.RASInCorrect                  0                       # Number of incorrect RAS predictions.
system.cpu.branchPred.indirectLookups               0                       # Number of indirect predictor lookups.
system.cpu.branchPred.indirectHits                  0                       # Number of indirect target hits.
system.cpu.branchPred.indirectMisses                0                       # Number of indirect misses.
system.cpu.branchPredindirectMispredicted            0                       # Number of mispredicted indirect branches.
system.cpu_voltage_domain.voltage                   1                       # Voltage in Volts
system.cpu_clk_domain.clock                       333                       # Clock period in ticks
system.cpu.dtb.fetch_hits                           0                       # ITB hits
system.cpu.dtb.fetch_misses                         0                       # ITB misses
system.cpu.dtb.fetch_acv                            0                       # ITB acv
system.cpu.dtb.fetch_accesses                       0                       # ITB accesses
system.cpu.dtb.read_hits                            7                       # DTB read hits
system.cpu.dtb.read_misses                          0                       # DTB read misses
system.cpu.dtb.read_acv                             0                       # DTB read access violations
system.cpu.dtb.read_accesses                        7                       # DTB read accesses
system.cpu.dtb.write_hits                           0                       # DTB write hits
system.cpu.dtb.write_misses                         0                       # DTB write misses
system.cpu.dtb.write_acv                            0                       # DTB write access violations
system.cpu.dtb.write_accesses                       0                       # DTB write accesses
system.cpu.dtb.data_hits                            7                       # DTB hits
system.cpu.dtb.data_misses                          0                       # DTB misses
system.cpu.dtb.data_acv                             0                       # DTB access violations
system.cpu.dtb.data_accesses                        7                       # DTB accesses
system.cpu.itb.fetch_hits                          20                       # ITB hits
system.cpu.itb.fetch_misses                         1                       # ITB misses
system.cpu.itb.fetch_acv                            0                       # ITB acv
system.cpu.itb.fetch_accesses                      21                       # ITB accesses
system.cpu.itb.read_hits                            0                       # DTB read hits
system.cpu.itb.read_misses                          0                       # DTB read misses
system.cpu.itb.read_acv                             0                       # DTB read access violations
system.cpu.itb.read_accesses                        0                       # DTB read accesses
system.cpu.itb.write_hits                           0                       # DTB write hits
system.cpu.itb.write_misses                         0                       # DTB write misses
system.cpu.itb.write_acv                            0                       # DTB write access violations
system.cpu.itb.write_accesses                       0                       # DTB write accesses
system.cpu.itb.data_hits                            0                       # DTB hits
system.cpu.itb.data_misses                          0                       # DTB misses
system.cpu.itb.data_acv                             0                       # DTB access violations
system.cpu.itb.data_accesses                        0                       # DTB accesses
system.cpu.workload.num_syscalls                    0                       # Number of system calls
system.cpu.pwrStateResidencyTicks::ON    1015088883678                       # Cumulative time (in ticks) in various power states
system.cpu.numCycles                             1053                       # number of cpu cycles simulated
system.cpu.numWorkItemsStarted                      0                       # number of work items this cpu started
system.cpu.numWorkItemsCompleted                    0                       # number of work items this cpu completed
system.cpu.fetch.icacheStallCycles                 83                       # Number of cycles fetch is stalled on an Icache miss
system.cpu.fetch.Insts                            197                       # Number of instructions fetch has processed
system.cpu.fetch.Branches                          33                       # Number of branches that fetch encountered
system.cpu.fetch.predictedBranches                  1                       # Number of branches that fetch has predicted taken
system.cpu.fetch.Cycles                            27                       # Number of cycles fetch has run and was not squashing or blocked
system.cpu.fetch.SquashCycles                      13                       # Number of cycles fetch has spent squashing
system.cpu.fetch.PendingDrainCycles                23                       # Number of cycles fetch has spent waiting on pipes to drain
system.cpu.fetch.PendingTrapStallCycles            13                       # Number of stall cycles due to pending traps
system.cpu.fetch.CacheLines                        20                       # Number of cache lines fetched
system.cpu.fetch.IcacheSquashes                     6                       # Number of outstanding Icache misses that were squashed
system.cpu.fetch.rateDist::samples                152                       # Number of instructions fetched each cycle (Total)
system.cpu.fetch.rateDist::mean              1.296053                       # Number of instructions fetched each cycle (Total)
system.cpu.fetch.rateDist::stdev             2.885999                       # Number of instructions fetched each cycle (Total)
system.cpu.fetch.rateDist::underflows               0      0.00%      0.00% # Number of instructions fetched each cycle (Total)
system.cpu.fetch.rateDist::0                      125     82.24%     82.24% # Number of instructions fetched each cycle (Total)
system.cpu.fetch.rateDist::1                        0      0.00%     82.24% # Number of instructions fetched each cycle (Total)
system.cpu.fetch.rateDist::2                        1      0.66%     82.89% # Number of instructions fetched each cycle (Total)
system.cpu.fetch.rateDist::3                        2      1.32%     84.21% # Number of instructions fetched each cycle (Total)
system.cpu.fetch.rateDist::4                        0      0.00%     84.21% # Number of instructions fetched each cycle (Total)
system.cpu.fetch.rateDist::5                        0      0.00%     84.21% # Number of instructions fetched each cycle (Total)
system.cpu.fetch.rateDist::6                        0      0.00%     84.21% # Number of instructions fetched each cycle (Total)
[...]
system.switch_cpus_1.iq.fu_busy_rate         0.028108                       # FU busy rate (busy events/executed inst)
system.switch_cpus_1.iq.int_inst_queue_reads    609874011                       # Number of integer instruction queue reads
system.switch_cpus_1.iq.int_inst_queue_writes    312314981                       # Number of integer instruction queue writes
system.switch_cpus_1.iq.int_inst_queue_wakeup_accesses    229040143                       # Number of integer instruction queue wakeup accesses
system.switch_cpus_1.iq.fp_inst_queue_reads      2435894                       # Number of floating instruction queue reads
system.switch_cpus_1.iq.fp_inst_queue_writes      1228144                       # Number of floating instruction queue writes
system.switch_cpus_1.iq.fp_inst_queue_wakeup_accesses      1200323                       # Number of floating instruction queue wakeup accesses
system.switch_cpus_1.iq.int_alu_accesses    242338700                       # Number of integer alu accesses
system.switch_cpus_1.iq.fp_alu_accesses       1226910                       # Number of floating point alu accesses
system.switch_cpus_1.iew.lsq.thread0.forwLoads      1372977                       # Number of loads that had data forwarded from stores
system.switch_cpus_1.iew.lsq.thread0.invAddrLoads            0                       # Number of loads ignored due to an invalid address
system.switch_cpus_1.iew.lsq.thread0.squashedLoads     12955589                       # Number of loads squashed
system.switch_cpus_1.iew.lsq.thread0.ignoredResponses         9905                       # Number of memory responses ignored because the instruction is squashed
system.switch_cpus_1.iew.lsq.thread0.memOrderViolation        11241                       # Number of memory ordering violations
system.switch_cpus_1.iew.lsq.thread0.squashedStores      3888098                       # Number of stores squashed
system.switch_cpus_1.iew.lsq.thread0.invAddrSwpfs            0                       # Number of software prefetches ignored due to an invalid address
system.switch_cpus_1.iew.lsq.thread0.blockedLoads            0                       # Number of blocked loads due to partial load-store forwarding
system.switch_cpus_1.iew.lsq.thread0.rescheduledLoads            0                       # Number of loads that were rescheduled
system.switch_cpus_1.iew.lsq.thread0.cacheBlocked         3731                       # Number of times an access to memory failed due to the cache being blocked
system.switch_cpus_1.iew.iewIdleCycles              0                       # Number of cycles IEW is idle
system.switch_cpus_1.iew.iewSquashCycles      2465817                       # Number of cycles IEW is squashing
system.switch_cpus_1.iew.iewBlockCycles       5772426                       # Number of cycles IEW is blocking
system.switch_cpus_1.iew.iewUnblockCycles      2163355                       # Number of cycles IEW is unblocking
system.switch_cpus_1.iew.iewDispatchedInsts    261100968                       # Number of instructions dispatched to IQ
system.switch_cpus_1.iew.iewDispSquashedInsts       980858                       # Number of squashed instructions skipped by dispatch
system.switch_cpus_1.iew.iewDispLoadInsts     61788034                       # Number of dispatched load instructions
system.switch_cpus_1.iew.iewDispStoreInsts     20266673                       # Number of dispatched store instructions
system.switch_cpus_1.iew.iewDispNonSpecInsts            0                       # Number of dispatched non-speculative instructions
system.switch_cpus_1.iew.iewIQFullEvents         5535                       # Number of times the IQ has become full, causing a stall
system.switch_cpus_1.iew.iewLSQFullEvents      2165094                       # Number of times the LSQ has become full, causing a stall
system.switch_cpus_1.iew.memOrderViolationEvents        11241                       # Number of memory order violations
system.switch_cpus_1.iew.predictedTakenIncorrect      1437899                       # Number of branches that were predicted taken incorrectly
system.switch_cpus_1.iew.predictedNotTakenIncorrect      1362487                       # Number of branches that were predicted not taken incorrectly
system.switch_cpus_1.iew.branchMispredicts      2800386                       # Number of branch mispredicts detected at execute
system.switch_cpus_1.iew.iewExecutedInsts    233409615                       # Number of executed instructions
system.switch_cpus_1.iew.iewExecLoadInsts     57734195                       # Number of load instructions executed
system.switch_cpus_1.iew.iewExecSquashedInsts      3651512                       # Number of squashed instructions skipped in execute
system.switch_cpus_1.iew.exec_swp                   0                       # number of swp insts executed
system.switch_cpus_1.iew.exec_nop             4334890                       # number of nop insts executed
system.switch_cpus_1.iew.exec_refs           76412754                       # number of memory reference insts executed
system.switch_cpus_1.iew.exec_branches       41314180                       # Number of branches executed
system.switch_cpus_1.iew.exec_stores         18678559                       # Number of stores executed
system.switch_cpus_1.iew.exec_rate           1.774461                       # Inst execution rate
system.switch_cpus_1.iew.wb_sent            231532250                       # cumulative count of insts sent to commit
system.switch_cpus_1.iew.wb_count           230240466                       # cumulative count of insts written-back
system.switch_cpus_1.iew.wb_producers       142118605                       # num instructions producing a value
system.switch_cpus_1.iew.wb_consumers       181361582                       # num instructions consuming a value
system.switch_cpus_1.iew.wb_rate             1.750368                       # insts written-back per cycle
system.switch_cpus_1.iew.wb_fanout           0.783620                       # average fanout of values written-back
system.switch_cpus_1.commit.commitSquashedInsts     53857532                       # The number of squashed insts skipped by commit
system.switch_cpus_1.commit.branchMispredicts      2335633                       # The number of times a branch was mispredicted
system.switch_cpus_1.commit.committed_per_cycle::samples    123019022                       # Number of insts commited each cycle
system.switch_cpus_1.commit.committed_per_cycle::mean     1.653140                       # Number of insts commited each cycle
system.switch_cpus_1.commit.committed_per_cycle::stdev     2.520357                       # Number of insts commited each cycle
system.switch_cpus_1.commit.committed_per_cycle::underflows            0      0.00%      0.00% # Number of insts commited each cycle
system.switch_cpus_1.commit.committed_per_cycle::0     63107544     51.30%     51.30% # Number of insts commited each cycle
system.switch_cpus_1.commit.committed_per_cycle::1     23507585     19.11%     70.41% # Number of insts commited each cycle
system.switch_cpus_1.commit.committed_per_cycle::2      9282043      7.55%     77.95% # Number of insts commited each cycle
system.switch_cpus_1.commit.committed_per_cycle::3      3802428      3.09%     81.04% # Number of insts commited each cycle
system.switch_cpus_1.commit.committed_per_cycle::4      4264553      3.47%     84.51% # Number of insts commited each cycle
system.switch_cpus_1.commit.committed_per_cycle::5      4191572      3.41%     87.92% # Number of insts commited each cycle
system.switch_cpus_1.commit.committed_per_cycle::6      2005500      1.63%     89.55% # Number of insts commited each cycle
system.switch_cpus_1.commit.committed_per_cycle::7      3022680      2.46%     92.01% # Number of insts commited each cycle
system.switch_cpus_1.commit.committed_per_cycle::8      9835117      7.99%    100.00% # Number of insts commited each cycle
system.switch_cpus_1.commit.committed_per_cycle::overflows            0      0.00%    100.00% # Number of insts commited each cycle
system.switch_cpus_1.commit.committed_per_cycle::min_value            0                       # Number of insts commited each cycle
system.switch_cpus_1.commit.committed_per_cycle::max_value            8                       # Number of insts commited each cycle
system.switch_cpus_1.commit.committed_per_cycle::total    123019022                       # Number of insts commited each cycle
system.switch_cpus_1.commit.committedInsts    203367723                       # Number of instructions committed
system.switch_cpus_1.commit.committedOps    203367723                       # Number of ops (including micro ops) committed
system.switch_cpus_1.commit.swp_count               0                       # Number of s/w prefetches committed
system.switch_cpus_1.commit.refs             65211012                       # Number of memory references committed
system.switch_cpus_1.commit.loads            48832439                       # Number of loads committed
system.switch_cpus_1.commit.membars                 0                       # Number of memory barriers committed
system.switch_cpus_1.commit.branches         35849890                       # Number of branches committed
system.switch_cpus_1.commit.fp_insts          1191360                       # Number of committed floating point instructions.
system.switch_cpus_1.commit.int_insts       197171622                       # Number of committed integer instructions.
system.switch_cpus_1.commit.function_calls      1737440                       # Number of function calls committed.
system.switch_cpus_1.commit.op_class_0::No_OpClass      3526571      1.73%      1.73% # Class of committed instruction
system.switch_cpus_1.commit.op_class_0::IntAlu    133820732     65.80%     67.54% # Class of committed instruction
system.switch_cpus_1.commit.op_class_0::IntMult        94592      0.05%     67.58% # Class of committed instruction
system.switch_cpus_1.commit.op_class_0::IntDiv            0      0.00%     67.58% # Class of committed instruction
system.switch_cpus_1.commit.op_class_0::FloatAdd       397120      0.20%     67.78% # Class of committed instruction
system.switch_cpus_1.commit.op_class_0::FloatCmp            0      0.00%     67.78% # Class of committed instruction
system.switch_cpus_1.commit.op_class_0::FloatCvt       238272      0.12%     67.90% # Class of committed instruction
system.switch_cpus_1.commit.op_class_0::FloatMult            0      0.00%     67.90% # Class of committed instruction
system.switch_cpus_1.commit.op_class_0::FloatMultAcc            0      0.00%     67.90% # Class of committed instruction
system.switch_cpus_1.commit.op_class_0::FloatDiv        79424      0.04%     67.93% # Class of committed instruction
system.switch_cpus_1.commit.op_class_0::FloatMisc            0      0.00%     67.93% # Class of committed instruction
system.switch_cpus_1.commit.op_class_0::FloatSqrt            0      0.00%     67.93% # Class of committed instruction
system.switch_cpus_1.commit.op_class_0::SimdAdd            0      0.00%     67.93% # Class of committed instruction
system.switch_cpus_1.commit.op_class_0::SimdAddAcc            0      0.00%     67.93% # Class of committed instruction
system.switch_cpus_1.commit.op_class_0::SimdAlu            0      0.00%     67.93% # Class of committed instruction
system.switch_cpus_1.commit.op_class_0::SimdCmp            0      0.00%     67.93% # Class of committed instruction
system.switch_cpus_1.commit.op_class_0::SimdCvt            0      0.00%     67.93% # Class of committed instruction
system.switch_cpus_1.commit.op_class_0::SimdMisc            0      0.00%     67.93% # Class of committed instruction
system.switch_cpus_1.commit.op_class_0::SimdMult            0      0.00%     67.93% # Class of committed instruction
system.switch_cpus_1.commit.op_class_0::SimdMultAcc            0      0.00%     67.93% # Class of committed instruction
system.switch_cpus_1.commit.op_class_0::SimdShift            0      0.00%     67.93% # Class of committed instruction
system.switch_cpus_1.commit.op_class_0::SimdShiftAcc            0      0.00%     67.93% # Class of committed instruction
system.switch_cpus_1.commit.op_class_0::SimdSqrt            0      0.00%     67.93% # Class of committed instruction
system.switch_cpus_1.commit.op_class_0::SimdFloatAdd            0      0.00%     67.93% # Class of committed instruction
system.switch_cpus_1.commit.op_class_0::SimdFloatAlu            0      0.00%     67.93% # Class of committed instruction
system.switch_cpus_1.commit.op_class_0::SimdFloatCmp            0      0.00%     67.93% # Class of committed instruction
system.switch_cpus_1.commit.op_class_0::SimdFloatCvt            0      0.00%     67.93% # Class of committed instruction
system.switch_cpus_1.commit.op_class_0::SimdFloatDiv            0      0.00%     67.93% # Class of committed instruction
system.switch_cpus_1.commit.op_class_0::SimdFloatMisc            0      0.00%     67.93% # Class of committed instruction
system.switch_cpus_1.commit.op_class_0::SimdFloatMult            0      0.00%     67.93% # Class of committed instruction
system.switch_cpus_1.commit.op_class_0::SimdFloatMultAcc            0      0.00%     67.93% # Class of committed instruction
system.switch_cpus_1.commit.op_class_0::SimdFloatSqrt            0      0.00%     67.93% # Class of committed instruction
system.switch_cpus_1.commit.op_class_0::MemRead     48594167     23.89%     91.83% # Class of committed instruction
system.switch_cpus_1.commit.op_class_0::MemWrite     16140301      7.94%     99.77% # Class of committed instruction
system.switch_cpus_1.commit.op_class_0::FloatMemRead       238272      0.12%     99.88% # Class of committed instruction
system.switch_cpus_1.commit.op_class_0::FloatMemWrite       238272      0.12%    100.00% # Class of committed instruction
system.switch_cpus_1.commit.op_class_0::IprAccess            0      0.00%    100.00% # Class of committed instruction
system.switch_cpus_1.commit.op_class_0::InstPrefetch            0      0.00%    100.00% # Class of committed instruction
system.switch_cpus_1.commit.op_class_0::total    203367723                       # Class of committed instruction
system.switch_cpus_1.commit.bw_lim_events      9835117                       # number cycles where commit BW limit reached
system.switch_cpus_1.rob.rob_reads          368826488                       # The number of ROB reads
system.switch_cpus_1.rob.rob_writes         522694091                       # The number of ROB writes
system.switch_cpus_1.timesIdled                 74811                       # Number of times that the entire CPU went into an idle state and unscheduled itself
system.switch_cpus_1.idleCycles                351378                       # Total number of cycles that the CPU has spent unscheduled due to idling
system.switch_cpus_1.committedInsts         200000000                       # Number of Instructions Simulated
system.switch_cpus_1.committedOps           200000000                       # Number of Ops (including micro ops) Simulated
system.switch_cpus_1.cpi                     0.657692                       # CPI: Cycles Per Instruction
system.switch_cpus_1.cpi_total               0.657692                       # CPI: Total CPI of All Threads
system.switch_cpus_1.ipc                     1.520469                       # IPC: Instructions Per Cycle
system.switch_cpus_1.ipc_total               1.520469                       # IPC: Total IPC of All Threads
system.switch_cpus_1.int_regfile_reads      304049993                       # number of integer regfile reads
system.switch_cpus_1.int_regfile_writes     172428446                       # number of integer regfile writes
system.switch_cpus_1.fp_regfile_reads          807499                       # number of floating regfile reads
system.switch_cpus_1.fp_regfile_writes         794272                       # number of floating regfile writes
system.switch_cpus_1.misc_regfile_reads        158848                       # number of misc regfile reads
system.switch_cpus_1.misc_regfile_writes        79424                       # number of misc regfile writes
system.tol3bus.snoop_filter.tot_requests       709522                       # Total number of requests made to the snoop filter.
system.tol3bus.snoop_filter.hit_single_requests       352497                       # Number of requests hitting in the snoop filter with a single holder of the requested data.
system.tol3bus.snoop_filter.hit_multi_requests            0                       # Number of requests hitting in the snoop filter with multiple (>1) holders of the requested data.
system.tol3bus.snoop_filter.tot_snoops           1023                       # Total number of snoops made to the snoop filter.
system.tol3bus.snoop_filter.hit_single_snoops         1023                       # Number of snoops hitting in the snoop filter with a single holder of the requested data.
system.tol3bus.snoop_filter.hit_multi_snoops            0                       # Number of snoops hitting in the snoop filter with multiple (>1) holders of the requested data.
system.tol3bus.pwrStateResidencyTicks::UNDEFINED 400904058490146                       # Cumulative time (in ticks) in various power states
system.tol3bus.trans_dist::ReadResp            323766                       # Transaction distribution
system.tol3bus.trans_dist::WritebackDirty       451064                       # Transaction distribution
system.tol3bus.trans_dist::CleanEvict          141956                       # Transaction distribution
system.tol3bus.trans_dist::ReadExReq            33259                       # Transaction distribution
system.tol3bus.trans_dist::ReadExResp           33259                       # Transaction distribution
system.tol3bus.trans_dist::ReadSharedReq       323766                       # Transaction distribution
system.tol3bus.pkt_count_system.cpu.l2.mem_side::system.l3.cpu_side      1066547                       # Packet count per connected master and slave (bytes)
system.tol3bus.pkt_size_system.cpu.l2.mem_side::system.l3.cpu_side     39884480                       # Cumulative packet size per connected master and slave (bytes)
system.tol3bus.snoops                          240523                       # Total snoops (count)
system.tol3bus.snoopTraffic                  11833216                       # Total snoop traffic (bytes)
system.tol3bus.snoop_fanout::samples           597548                       # Request fanout histogram
system.tol3bus.snoop_fanout::mean            0.001712                       # Request fanout histogram
system.tol3bus.snoop_fanout::stdev           0.041341                       # Request fanout histogram
system.tol3bus.snoop_fanout::underflows             0      0.00%      0.00% # Request fanout histogram
system.tol3bus.snoop_fanout::0                 596525     99.83%     99.83% # Request fanout histogram
system.tol3bus.snoop_fanout::1                   1023      0.17%    100.00% # Request fanout histogram
system.tol3bus.snoop_fanout::overflows              0      0.00%    100.00% # Request fanout histogram
system.tol3bus.snoop_fanout::min_value              0                       # Request fanout histogram
system.tol3bus.snoop_fanout::max_value              1                       # Request fanout histogram
system.tol3bus.snoop_fanout::total             597548                       # Request fanout histogram
system.tol3bus.reqLayer0.occupancy          324905436                       # Layer occupancy (ticks)
system.tol3bus.reqLayer0.utilization              0.0                       # Layer utilization (%)
system.tol3bus.respLayer0.occupancy         237778650                       # Layer occupancy (ticks)
system.tol3bus.respLayer0.utilization             0.0                       # Layer utilization (%)

---------- End Simulation Statistics   ----------
