
---------- Begin Simulation Statistics ----------
sim_seconds                                  1.093237                       # Number of seconds simulated
sim_ticks                                1093236647022                       # Number of ticks simulated
final_tick                               18746578037952                       # Number of ticks from beginning of simulation (restored from checkpoints and never reset)
sim_freq                                 1000000000000                       # Frequency of simulated ticks
host_inst_rate                                 504265                       # Simulator instruction rate (inst/s)
host_op_rate                                   504265                       # Simulator op (including micro ops) rate (op/s)
host_tick_rate                              459401040                       # Simulator tick rate (ticks/s)
host_mem_usage                                2395224                       # Number of bytes of host memory used
host_seconds                                  2379.70                       # Real time elapsed on the host
sim_insts                                  1200000011                       # Number of instructions simulated
sim_ops                                    1200000011                       # Number of ops (including micro ops) simulated
system.voltage_domain.voltage                       1                       # Voltage in Volts
system.clk_domain.clock                          1000                       # Clock period in ticks
system.mem_ctrls0.pwrStateResidencyTicks::UNDEFINED 18746578037952                       # Cumulative time (in ticks) in various power states
system.mem_ctrls0.bytes_read::cpu.inst            192                       # Number of bytes read from this memory
system.mem_ctrls0.bytes_read::switch_cpus.inst       118336                       # Number of bytes read from this memory
system.mem_ctrls0.bytes_read::switch_cpus.data      7935040                       # Number of bytes read from this memory
system.mem_ctrls0.bytes_read::switch_cpus_1.inst        14720                       # Number of bytes read from this memory
system.mem_ctrls0.bytes_read::switch_cpus_1.data      1338880                       # Number of bytes read from this memory
system.mem_ctrls0.bytes_read::total           9407168                       # Number of bytes read from this memory
system.mem_ctrls0.bytes_inst_read::cpu.inst          192                       # Number of instructions bytes read from this memory
system.mem_ctrls0.bytes_inst_read::switch_cpus.inst       118336                       # Number of instructions bytes read from this memory
system.mem_ctrls0.bytes_inst_read::switch_cpus_1.inst        14720                       # Number of instructions bytes read from this memory
system.mem_ctrls0.bytes_inst_read::total       133248                       # Number of instructions bytes read from this memory
system.mem_ctrls0.bytes_written::writebacks      5795072                       # Number of bytes written to this memory
system.mem_ctrls0.bytes_written::total        5795072                       # Number of bytes written to this memory
system.mem_ctrls0.num_reads::cpu.inst               3                       # Number of read requests responded to by this memory
system.mem_ctrls0.num_reads::switch_cpus.inst         1849                       # Number of read requests responded to by this memory
system.mem_ctrls0.num_reads::switch_cpus.data       123985                       # Number of read requests responded to by this memory
system.mem_ctrls0.num_reads::switch_cpus_1.inst          230                       # Number of read requests responded to by this memory
system.mem_ctrls0.num_reads::switch_cpus_1.data        20920                       # Number of read requests responded to by this memory
system.mem_ctrls0.num_reads::total             146987                       # Number of read requests responded to by this memory
system.mem_ctrls0.num_writes::writebacks        90548                       # Number of write requests responded to by this memory
system.mem_ctrls0.num_writes::total             90548                       # Number of write requests responded to by this memory
system.mem_ctrls0.bw_read::cpu.inst               176                       # Total read bandwidth from this memory (bytes/s)
system.mem_ctrls0.bw_read::switch_cpus.inst       108244                       # Total read bandwidth from this memory (bytes/s)
system.mem_ctrls0.bw_read::switch_cpus.data      7258300                       # Total read bandwidth from this memory (bytes/s)
system.mem_ctrls0.bw_read::switch_cpus_1.inst        13465                       # Total read bandwidth from this memory (bytes/s)
system.mem_ctrls0.bw_read::switch_cpus_1.data      1224694                       # Total read bandwidth from this memory (bytes/s)
system.mem_ctrls0.bw_read::total              8604878                       # Total read bandwidth from this memory (bytes/s)
system.mem_ctrls0.bw_inst_read::cpu.inst          176                       # Instruction read bandwidth from this memory (bytes/s)
system.mem_ctrls0.bw_inst_read::switch_cpus.inst       108244                       # Instruction read bandwidth from this memory (bytes/s)
system.mem_ctrls0.bw_inst_read::switch_cpus_1.inst        13465                       # Instruction read bandwidth from this memory (bytes/s)
system.mem_ctrls0.bw_inst_read::total          121884                       # Instruction read bandwidth from this memory (bytes/s)
system.mem_ctrls0.bw_write::writebacks        5300839                       # Write bandwidth from this memory (bytes/s)
system.mem_ctrls0.bw_write::total             5300839                       # Write bandwidth from this memory (bytes/s)
system.mem_ctrls0.bw_total::writebacks        5300839                       # Total bandwidth to/from this memory (bytes/s)
system.mem_ctrls0.bw_total::cpu.inst              176                       # Total bandwidth to/from this memory (bytes/s)
system.mem_ctrls0.bw_total::switch_cpus.inst       108244                       # Total bandwidth to/from this memory (bytes/s)
system.mem_ctrls0.bw_total::switch_cpus.data      7258300                       # Total bandwidth to/from this memory (bytes/s)
system.mem_ctrls0.bw_total::switch_cpus_1.inst        13465                       # Total bandwidth to/from this memory (bytes/s)
system.mem_ctrls0.bw_total::switch_cpus_1.data      1224694                       # Total bandwidth to/from this memory (bytes/s)
system.mem_ctrls0.bw_total::total            13905718                       # Total bandwidth to/from this memory (bytes/s)
system.mem_ctrls0.readReqs                     146987                       # Number of read requests accepted
system.mem_ctrls0.writeReqs                     90548                       # Number of write requests accepted
system.mem_ctrls0.readBursts                   146987                       # Number of DRAM read bursts, including those serviced by the write queue
system.mem_ctrls0.writeBursts                   90548                       # Number of DRAM write bursts, including those merged in the write queue
system.mem_ctrls0.bytesReadDRAM               9403136                       # Total number of bytes read from DRAM
system.mem_ctrls0.bytesReadWrQ                   4032                       # Total number of bytes read from write queue
system.mem_ctrls0.bytesWritten                5793856                       # Total number of bytes written to DRAM
system.mem_ctrls0.bytesReadSys                9407168                       # Total read bytes from the system interface side
system.mem_ctrls0.bytesWrittenSys             5795072                       # Total written bytes from the system interface side
system.mem_ctrls0.servicedByWrQ                    63                       # Number of DRAM read bursts serviced by the write queue
system.mem_ctrls0.mergedWrBursts                    0                       # Number of DRAM write bursts merged with an existing one
system.mem_ctrls0.neitherReadNorWriteReqs            0                       # Number of requests that are neither read nor write
system.mem_ctrls0.perBankRdBursts::0             8954                       # Per bank write bursts
system.mem_ctrls0.perBankRdBursts::1             9185                       # Per bank write bursts
system.mem_ctrls0.perBankRdBursts::2             9259                       # Per bank write bursts
system.mem_ctrls0.perBankRdBursts::3             9817                       # Per bank write bursts
system.mem_ctrls0.perBankRdBursts::4             9653                       # Per bank write bursts
system.mem_ctrls0.perBankRdBursts::5             9292                       # Per bank write bursts
system.mem_ctrls0.perBankRdBursts::6             8779                       # Per bank write bursts
system.mem_ctrls0.perBankRdBursts::7             8859                       # Per bank write bursts
system.mem_ctrls0.perBankRdBursts::8             9399                       # Per bank write bursts
system.mem_ctrls0.perBankRdBursts::9             9618                       # Per bank write bursts
system.mem_ctrls0.perBankRdBursts::10            9017                       # Per bank write bursts
system.mem_ctrls0.perBankRdBursts::11            9396                       # Per bank write bursts
system.mem_ctrls0.perBankRdBursts::12            9098                       # Per bank write bursts
system.mem_ctrls0.perBankRdBursts::13            8995                       # Per bank write bursts
system.mem_ctrls0.perBankRdBursts::14            8921                       # Per bank write bursts
system.mem_ctrls0.perBankRdBursts::15            8682                       # Per bank write bursts
system.mem_ctrls0.perBankWrBursts::0             5799                       # Per bank write bursts
system.mem_ctrls0.perBankWrBursts::1             5930                       # Per bank write bursts
system.mem_ctrls0.perBankWrBursts::2             5766                       # Per bank write bursts
system.mem_ctrls0.perBankWrBursts::3             6034                       # Per bank write bursts
system.mem_ctrls0.perBankWrBursts::4             5795                       # Per bank write bursts
system.mem_ctrls0.perBankWrBursts::5             5662                       # Per bank write bursts
system.mem_ctrls0.perBankWrBursts::6             5272                       # Per bank write bursts
system.mem_ctrls0.perBankWrBursts::7             5281                       # Per bank write bursts
system.mem_ctrls0.perBankWrBursts::8             5416                       # Per bank write bursts
system.mem_ctrls0.perBankWrBursts::9             5498                       # Per bank write bursts
system.mem_ctrls0.perBankWrBursts::10            5709                       # Per bank write bursts
system.mem_ctrls0.perBankWrBursts::11            6118                       # Per bank write bursts
system.mem_ctrls0.perBankWrBursts::12            5775                       # Per bank write bursts
system.mem_ctrls0.perBankWrBursts::13            5539                       # Per bank write bursts
system.mem_ctrls0.perBankWrBursts::14            5453                       # Per bank write bursts
system.mem_ctrls0.perBankWrBursts::15            5482                       # Per bank write bursts
system.mem_ctrls0.numRdRetry                        0                       # Number of times read queue was full causing retry
system.mem_ctrls0.numWrRetry                        0                       # Number of times write queue was full causing retry
system.mem_ctrls0.totGap                 1093235826843                       # Total gap between requests
system.mem_ctrls0.readPktSize::0                    0                       # Read request sizes (log2)
system.mem_ctrls0.readPktSize::1                    0                       # Read request sizes (log2)
system.mem_ctrls0.readPktSize::2                    0                       # Read request sizes (log2)
system.mem_ctrls0.readPktSize::3                    0                       # Read request sizes (log2)
system.mem_ctrls0.readPktSize::4                    0                       # Read request sizes (log2)
system.mem_ctrls0.readPktSize::5                    0                       # Read request sizes (log2)
system.mem_ctrls0.readPktSize::6               146987                       # Read request sizes (log2)
system.mem_ctrls0.writePktSize::0                   0                       # Write request sizes (log2)
system.mem_ctrls0.writePktSize::1                   0                       # Write request sizes (log2)
system.mem_ctrls0.writePktSize::2                   0                       # Write request sizes (log2)
system.mem_ctrls0.writePktSize::3                   0                       # Write request sizes (log2)
system.mem_ctrls0.writePktSize::4                   0                       # Write request sizes (log2)
system.mem_ctrls0.writePktSize::5                   0                       # Write request sizes (log2)
system.mem_ctrls0.writePktSize::6               90548                       # Write request sizes (log2)
system.mem_ctrls0.rdQLenPdf::0                 145240                       # What read queue length does an incoming req see
system.mem_ctrls0.rdQLenPdf::1                   1636                       # What read queue length does an incoming req see
system.mem_ctrls0.rdQLenPdf::2                     48                       # What read queue length does an incoming req see
system.mem_ctrls0.rdQLenPdf::3                      0                       # What read queue length does an incoming req see
system.mem_ctrls0.rdQLenPdf::4                      0                       # What read queue length does an incoming req see
system.mem_ctrls0.rdQLenPdf::5                      0                       # What read queue length does an incoming req see
system.mem_ctrls0.rdQLenPdf::6                      0                       # What read queue length does an incoming req see
system.mem_ctrls0.rdQLenPdf::7                      0                       # What read queue length does an incoming req see
system.mem_ctrls0.rdQLenPdf::8                      0                       # What read queue length does an incoming req see
system.mem_ctrls0.rdQLenPdf::9                      0                       # What read queue length does an incoming req see
system.mem_ctrls0.rdQLenPdf::10                     0                       # What read queue length does an incoming req see
system.mem_ctrls0.rdQLenPdf::11                     0                       # What read queue length does an incoming req see
system.mem_ctrls0.rdQLenPdf::12                     0                       # What read queue length does an incoming req see
system.mem_ctrls0.rdQLenPdf::13                     0                       # What read queue length does an incoming req see
system.mem_ctrls0.rdQLenPdf::14                     0                       # What read queue length does an incoming req see
system.mem_ctrls0.rdQLenPdf::15                     0                       # What read queue length does an incoming req see
system.mem_ctrls0.rdQLenPdf::16                     0                       # What read queue length does an incoming req see
system.mem_ctrls0.rdQLenPdf::17                     0                       # What read queue length does an incoming req see
system.mem_ctrls0.rdQLenPdf::18                     0                       # What read queue length does an incoming req see
system.mem_ctrls0.rdQLenPdf::19                     0                       # What read queue length does an incoming req see
system.mem_ctrls0.rdQLenPdf::20                     0                       # What read queue length does an incoming req see
system.mem_ctrls0.rdQLenPdf::21                     0                       # What read queue length does an incoming req see
system.mem_ctrls0.rdQLenPdf::22                     0                       # What read queue length does an incoming req see
system.mem_ctrls0.rdQLenPdf::23                     0                       # What read queue length does an incoming req see
system.mem_ctrls0.rdQLenPdf::24                     0                       # What read queue length does an incoming req see
system.mem_ctrls0.rdQLenPdf::25                     0                       # What read queue length does an incoming req see
system.mem_ctrls0.rdQLenPdf::26                     0                       # What read queue length does an incoming req see
system.mem_ctrls0.rdQLenPdf::27                     0                       # What read queue length does an incoming req see
system.mem_ctrls0.rdQLenPdf::28                     0                       # What read queue length does an incoming req see
system.mem_ctrls0.rdQLenPdf::29                     0                       # What read queue length does an incoming req see
system.mem_ctrls0.rdQLenPdf::30                     0                       # What read queue length does an incoming req see
system.mem_ctrls0.rdQLenPdf::31                     0                       # What read queue length does an incoming req see
system.mem_ctrls0.wrQLenPdf::0                      2                       # What write queue length does an incoming req see
system.mem_ctrls0.wrQLenPdf::1                      2                       # What write queue length does an incoming req see
system.mem_ctrls0.wrQLenPdf::2                      2                       # What write queue length does an incoming req see
system.mem_ctrls0.wrQLenPdf::3                      2                       # What write queue length does an incoming req see
system.mem_ctrls0.wrQLenPdf::4                      2                       # What write queue length does an incoming req see
system.mem_ctrls0.wrQLenPdf::5                      2                       # What write queue length does an incoming req see
system.mem_ctrls0.wrQLenPdf::6                      2                       # What write queue length does an incoming req see
system.mem_ctrls0.wrQLenPdf::7                      2                       # What write queue length does an incoming req see
system.mem_ctrls0.wrQLenPdf::8                      2                       # What write queue length does an incoming req see
system.mem_ctrls0.wrQLenPdf::9                      2                       # What write queue length does an incoming req see
system.mem_ctrls0.wrQLenPdf::10                     2                       # What write queue length does an incoming req see
system.mem_ctrls0.wrQLenPdf::11                     2                       # What write queue length does an incoming req see
system.mem_ctrls0.wrQLenPdf::12                     2                       # What write queue length does an incoming req see
system.mem_ctrls0.wrQLenPdf::13                     2                       # What write queue length does an incoming req see
system.mem_ctrls0.wrQLenPdf::14                     2                       # What write queue length does an incoming req see
system.mem_ctrls0.wrQLenPdf::15                  4098                       # What write queue length does an incoming req see
system.mem_ctrls0.wrQLenPdf::16                  4154                       # What write queue length does an incoming req see
system.mem_ctrls0.wrQLenPdf::17                  5040                       # What write queue length does an incoming req see
system.mem_ctrls0.wrQLenPdf::18                  5126                       # What write queue length does an incoming req see
system.mem_ctrls0.wrQLenPdf::19                  5153                       # What write queue length does an incoming req see
system.mem_ctrls0.wrQLenPdf::20                  5141                       # What write queue length does an incoming req see
system.mem_ctrls0.wrQLenPdf::21                  5142                       # What write queue length does an incoming req see
system.mem_ctrls0.wrQLenPdf::22                  5142                       # What write queue length does an incoming req see
system.mem_ctrls0.wrQLenPdf::23                  5140                       # What write queue length does an incoming req see
system.mem_ctrls0.wrQLenPdf::24                  5148                       # What write queue length does an incoming req see
system.mem_ctrls0.wrQLenPdf::25                  5136                       # What write queue length does an incoming req see
system.mem_ctrls0.wrQLenPdf::26                  5137                       # What write queue length does an incoming req see
system.mem_ctrls0.wrQLenPdf::27                  5147                       # What write queue length does an incoming req see
system.mem_ctrls0.wrQLenPdf::28                  5147                       # What write queue length does an incoming req see
system.mem_ctrls0.wrQLenPdf::29                  5175                       # What write queue length does an incoming req see
system.mem_ctrls0.wrQLenPdf::30                  5133                       # What write queue length does an incoming req see
system.mem_ctrls0.wrQLenPdf::31                  5111                       # What write queue length does an incoming req see
system.mem_ctrls0.wrQLenPdf::32                  5111                       # What write queue length does an incoming req see
system.mem_ctrls0.wrQLenPdf::33                   107                       # What write queue length does an incoming req see
system.mem_ctrls0.wrQLenPdf::34                    21                       # What write queue length does an incoming req see
system.mem_ctrls0.wrQLenPdf::35                     5                       # What write queue length does an incoming req see
system.mem_ctrls0.wrQLenPdf::36                     2                       # What write queue length does an incoming req see
system.mem_ctrls0.wrQLenPdf::37                     2                       # What write queue length does an incoming req see
system.mem_ctrls0.wrQLenPdf::38                     0                       # What write queue length does an incoming req see
system.mem_ctrls0.wrQLenPdf::39                     0                       # What write queue length does an incoming req see
system.mem_ctrls0.wrQLenPdf::40                     0                       # What write queue length does an incoming req see
system.mem_ctrls0.wrQLenPdf::41                     0                       # What write queue length does an incoming req see
system.mem_ctrls0.wrQLenPdf::42                     0                       # What write queue length does an incoming req see
system.mem_ctrls0.wrQLenPdf::43                     0                       # What write queue length does an incoming req see
system.mem_ctrls0.wrQLenPdf::44                     0                       # What write queue length does an incoming req see
system.mem_ctrls0.wrQLenPdf::45                     0                       # What write queue length does an incoming req see
system.mem_ctrls0.wrQLenPdf::46                     0                       # What write queue length does an incoming req see
system.mem_ctrls0.wrQLenPdf::47                     0                       # What write queue length does an incoming req see
system.mem_ctrls0.wrQLenPdf::48                     0                       # What write queue length does an incoming req see
system.mem_ctrls0.wrQLenPdf::49                     0                       # What write queue length does an incoming req see
system.mem_ctrls0.wrQLenPdf::50                     0                       # What write queue length does an incoming req see
system.mem_ctrls0.wrQLenPdf::51                     0                       # What write queue length does an incoming req see
system.mem_ctrls0.wrQLenPdf::52                     0                       # What write queue length does an incoming req see
system.mem_ctrls0.wrQLenPdf::53                     0                       # What write queue length does an incoming req see
system.mem_ctrls0.wrQLenPdf::54                     0                       # What write queue length does an incoming req see
system.mem_ctrls0.wrQLenPdf::55                     0                       # What write queue length does an incoming req see
system.mem_ctrls0.wrQLenPdf::56                     0                       # What write queue length does an incoming req see
system.mem_ctrls0.wrQLenPdf::57                     0                       # What write queue length does an incoming req see
system.mem_ctrls0.wrQLenPdf::58                     0                       # What write queue length does an incoming req see
system.mem_ctrls0.wrQLenPdf::59                     0                       # What write queue length does an incoming req see
system.mem_ctrls0.wrQLenPdf::60                     0                       # What write queue length does an incoming req see
system.mem_ctrls0.wrQLenPdf::61                     0                       # What write queue length does an incoming req see
system.mem_ctrls0.wrQLenPdf::62                     0                       # What write queue length does an incoming req see
system.mem_ctrls0.wrQLenPdf::63                     0                       # What write queue length does an incoming req see
system.mem_ctrls0.bytesPerActivate::samples       209354                       # Bytes accessed per row activation
system.mem_ctrls0.bytesPerActivate::mean    72.588401                       # Bytes accessed per row activation
system.mem_ctrls0.bytesPerActivate::gmean    68.129802                       # Bytes accessed per row activation
system.mem_ctrls0.bytesPerActivate::stdev    55.227100                       # Bytes accessed per row activation
system.mem_ctrls0.bytesPerActivate::0-127       194846     93.07%     93.07% # Bytes accessed per row activation
system.mem_ctrls0.bytesPerActivate::128-255        12630      6.03%     99.10% # Bytes accessed per row activation
system.mem_ctrls0.bytesPerActivate::256-383          741      0.35%     99.46% # Bytes accessed per row activation
system.mem_ctrls0.bytesPerActivate::384-511          286      0.14%     99.59% # Bytes accessed per row activation
system.mem_ctrls0.bytesPerActivate::512-639          188      0.09%     99.68% # Bytes accessed per row activation
system.mem_ctrls0.bytesPerActivate::640-767          142      0.07%     99.75% # Bytes accessed per row activation
system.mem_ctrls0.bytesPerActivate::768-895          118      0.06%     99.81% # Bytes accessed per row activation
system.mem_ctrls0.bytesPerActivate::896-1023           70      0.03%     99.84% # Bytes accessed per row activation
system.mem_ctrls0.bytesPerActivate::1024-1151          333      0.16%    100.00% # Bytes accessed per row activation
system.mem_ctrls0.bytesPerActivate::total       209354                       # Bytes accessed per row activation
system.mem_ctrls0.rdPerTurnAround::samples         5112                       # Reads before turning the bus around for writes
system.mem_ctrls0.rdPerTurnAround::mean     28.741002                       # Reads before turning the bus around for writes
system.mem_ctrls0.rdPerTurnAround::stdev   362.774005                       # Reads before turning the bus around for writes
system.mem_ctrls0.rdPerTurnAround::0-1023         5111     99.98%     99.98% # Reads before turning the bus around for writes
system.mem_ctrls0.rdPerTurnAround::25600-26623            1      0.02%    100.00% # Reads before turning the bus around for writes
system.mem_ctrls0.rdPerTurnAround::total         5112                       # Reads before turning the bus around for writes
system.mem_ctrls0.wrPerTurnAround::samples         5112                       # Writes before turning the bus around for reads
system.mem_ctrls0.wrPerTurnAround::mean     17.709116                       # Writes before turning the bus around for reads
system.mem_ctrls0.wrPerTurnAround::gmean    17.685218                       # Writes before turning the bus around for reads
system.mem_ctrls0.wrPerTurnAround::stdev     0.908498                       # Writes before turning the bus around for reads
system.mem_ctrls0.wrPerTurnAround::16             968     18.94%     18.94% # Writes before turning the bus around for reads
system.mem_ctrls0.wrPerTurnAround::17              36      0.70%     19.64% # Writes before turning the bus around for reads
system.mem_ctrls0.wrPerTurnAround::18            3706     72.50%     92.14% # Writes before turning the bus around for reads
system.mem_ctrls0.wrPerTurnAround::19             347      6.79%     98.92% # Writes before turning the bus around for reads
system.mem_ctrls0.wrPerTurnAround::20              39      0.76%     99.69% # Writes before turning the bus around for reads
system.mem_ctrls0.wrPerTurnAround::21               9      0.18%     99.86% # Writes before turning the bus around for reads
system.mem_ctrls0.wrPerTurnAround::22               3      0.06%     99.92% # Writes before turning the bus around for reads
system.mem_ctrls0.wrPerTurnAround::23               3      0.06%     99.98% # Writes before turning the bus around for reads
system.mem_ctrls0.wrPerTurnAround::24               1      0.02%    100.00% # Writes before turning the bus around for reads
system.mem_ctrls0.wrPerTurnAround::total         5112                       # Writes before turning the bus around for reads
system.mem_ctrls0.totQLat                 27182227004                       # Total ticks spent queuing
system.mem_ctrls0.totMemAccLat            29937052004                       # Total ticks spent from burst creation until serviced by the DRAM
system.mem_ctrls0.totBusLat                 734620000                       # Total ticks spent in databus transfers
system.mem_ctrls0.avgQLat                   185008.76                       # Average queueing delay per DRAM burst
system.mem_ctrls0.avgBusLat                   5000.00                       # Average bus latency per DRAM burst
system.mem_ctrls0.avgMemAccLat              203758.76                       # Average memory access latency per DRAM burst
system.mem_ctrls0.avgRdBW                        8.60                       # Average DRAM read bandwidth in MiByte/s
system.mem_ctrls0.avgWrBW                        5.30                       # Average achieved write bandwidth in MiByte/s
system.mem_ctrls0.avgRdBWSys                     8.60                       # Average system read bandwidth in MiByte/s
system.mem_ctrls0.avgWrBWSys                     5.30                       # Average system write bandwidth in MiByte/s
system.mem_ctrls0.peakBW                     12800.00                       # Theoretical peak bandwidth in MiByte/s
system.mem_ctrls0.busUtil                        0.11                       # Data bus utilization in percentage
system.mem_ctrls0.busUtilRead                    0.07                       # Data bus utilization in percentage for reads
system.mem_ctrls0.busUtilWrite                   0.04                       # Data bus utilization in percentage for writes
system.mem_ctrls0.avgRdQLen                      1.00                       # Average read queue length when enqueuing
system.mem_ctrls0.avgWrQLen                     20.90                       # Average write queue length when enqueuing
system.mem_ctrls0.readRowHits                   19219                       # Number of row buffer hits during reads
system.mem_ctrls0.writeRowHits                   8875                       # Number of row buffer hits during writes
system.mem_ctrls0.readRowHitRate                13.08                       # Row buffer hit rate for reads
system.mem_ctrls0.writeRowHitRate                9.80                       # Row buffer hit rate for writes
system.mem_ctrls0.avgGap                   4602419.97                       # Average gap between requests
system.mem_ctrls0.pageHitRate                   11.83                       # Row buffer hit rate, read and write combined
system.mem_ctrls0_0.actEnergy               751792020                       # Energy for activate commands per rank (pJ)
system.mem_ctrls0_0.preEnergy               399586935                       # Energy for precharge commands per rank (pJ)
system.mem_ctrls0_0.readEnergy              526917720                       # Energy for read commands per rank (pJ)
system.mem_ctrls0_0.writeEnergy             237713580                       # Energy for write commands per rank (pJ)
system.mem_ctrls0_0.refreshEnergy        57269082000.000015                       # Energy for refresh commands per rank (pJ)
system.mem_ctrls0_0.actBackEnergy         19805001120                       # Energy for active background per rank (pJ)
system.mem_ctrls0_0.preBackEnergy          3338582880                       # Energy for precharge background per rank (pJ)
system.mem_ctrls0_0.actPowerDownEnergy   113343200970                       # Energy for active power-down per rank (pJ)
system.mem_ctrls0_0.prePowerDownEnergy    95564964960                       # Energy for precharge power-down per rank (pJ)
system.mem_ctrls0_0.selfRefreshEnergy    143891445825                       # Energy for self refresh per rank (pJ)
system.mem_ctrls0_0.totalEnergy          435154624680                       # Total energy per rank (pJ)
system.mem_ctrls0_0.averagePower           398.042473                       # Core power per rank (mW)
system.mem_ctrls0_0.totalIdleTime        1041048111139                       # Total Idle time Per DRAM Rank
system.mem_ctrls0_0.memoryStateTime::IDLE   6679923084                       # Time in different power states
system.mem_ctrls0_0.memoryStateTime::REF  24373622000                       # Time in different power states
system.mem_ctrls0_0.memoryStateTime::SREF 543625107973                       # Time in different power states
system.mem_ctrls0_0.memoryStateTime::PRE_PDN 248867249873                       # Time in different power states
system.mem_ctrls0_0.memoryStateTime::ACT  21130991000                       # Time in different power states
system.mem_ctrls0_0.memoryStateTime::ACT_PDN 248559753092                       # Time in different power states
system.mem_ctrls0_1.actEnergy               743031240                       # Energy for activate commands per rank (pJ)
system.mem_ctrls0_1.preEnergy               394911495                       # Energy for precharge commands per rank (pJ)
system.mem_ctrls0_1.readEnergy              522119640                       # Energy for read commands per rank (pJ)
system.mem_ctrls0_1.writeEnergy             234847800                       # Energy for write commands per rank (pJ)
system.mem_ctrls0_1.refreshEnergy        57009089280.000015                       # Energy for refresh commands per rank (pJ)
system.mem_ctrls0_1.actBackEnergy         19614392550                       # Energy for active background per rank (pJ)
system.mem_ctrls0_1.preBackEnergy          3339577920                       # Energy for precharge background per rank (pJ)
system.mem_ctrls0_1.actPowerDownEnergy   112373058120                       # Energy for active power-down per rank (pJ)
system.mem_ctrls0_1.prePowerDownEnergy    95224608960                       # Energy for precharge power-down per rank (pJ)
system.mem_ctrls0_1.selfRefreshEnergy    144725865195                       # Energy for self refresh per rank (pJ)
system.mem_ctrls0_1.totalEnergy          434210307180                       # Total energy per rank (pJ)
system.mem_ctrls0_1.averagePower           397.178697                       # Core power per rank (mW)
system.mem_ctrls0_1.totalIdleTime        1041461739189                       # Total Idle time Per DRAM Rank
system.mem_ctrls0_1.memoryStateTime::IDLE   6698463098                       # Time in different power states
system.mem_ctrls0_1.memoryStateTime::REF  24263666000                       # Time in different power states
system.mem_ctrls0_1.memoryStateTime::SREF 547048747094                       # Time in different power states
system.mem_ctrls0_1.memoryStateTime::PRE_PDN 247980777110                       # Time in different power states
system.mem_ctrls0_1.memoryStateTime::ACT  20812778735                       # Time in different power states
system.mem_ctrls0_1.memoryStateTime::ACT_PDN 246432214985                       # Time in different power states
system.mem_ctrls1.pwrStateResidencyTicks::UNDEFINED 18746578037952                       # Cumulative time (in ticks) in various power states
system.mem_ctrls1.bytes_read::cpu.inst            128                       # Number of bytes read from this memory
system.mem_ctrls1.bytes_read::cpu.data            192                       # Number of bytes read from this memory
system.mem_ctrls1.bytes_read::switch_cpus.inst       117568                       # Number of bytes read from this memory
system.mem_ctrls1.bytes_read::switch_cpus.data      7966400                       # Number of bytes read from this memory
system.mem_ctrls1.bytes_read::switch_cpus_1.inst        15040                       # Number of bytes read from this memory
system.mem_ctrls1.bytes_read::switch_cpus_1.data      1350592                       # Number of bytes read from this memory
system.mem_ctrls1.bytes_read::total           9449920                       # Number of bytes read from this memory
system.mem_ctrls1.bytes_inst_read::cpu.inst          128                       # Number of instructions bytes read from this memory
system.mem_ctrls1.bytes_inst_read::switch_cpus.inst       117568                       # Number of instructions bytes read from this memory
system.mem_ctrls1.bytes_inst_read::switch_cpus_1.inst        15040                       # Number of instructions bytes read from this memory
system.mem_ctrls1.bytes_inst_read::total       132736                       # Number of instructions bytes read from this memory
system.mem_ctrls1.bytes_written::writebacks      5820800                       # Number of bytes written to this memory
system.mem_ctrls1.bytes_written::total        5820800                       # Number of bytes written to this memory
system.mem_ctrls1.num_reads::cpu.inst               2                       # Number of read requests responded to by this memory
system.mem_ctrls1.num_reads::cpu.data               3                       # Number of read requests responded to by this memory
system.mem_ctrls1.num_reads::switch_cpus.inst         1837                       # Number of read requests responded to by this memory
system.mem_ctrls1.num_reads::switch_cpus.data       124475                       # Number of read requests responded to by this memory
system.mem_ctrls1.num_reads::switch_cpus_1.inst          235                       # Number of read requests responded to by this memory
system.mem_ctrls1.num_reads::switch_cpus_1.data        21103                       # Number of read requests responded to by this memory
system.mem_ctrls1.num_reads::total             147655                       # Number of read requests responded to by this memory
system.mem_ctrls1.num_writes::writebacks        90950                       # Number of write requests responded to by this memory
system.mem_ctrls1.num_writes::total             90950                       # Number of write requests responded to by this memory
system.mem_ctrls1.bw_read::cpu.inst               117                       # Total read bandwidth from this memory (bytes/s)
system.mem_ctrls1.bw_read::cpu.data               176                       # Total read bandwidth from this memory (bytes/s)
system.mem_ctrls1.bw_read::switch_cpus.inst       107541                       # Total read bandwidth from this memory (bytes/s)
system.mem_ctrls1.bw_read::switch_cpus.data      7286986                       # Total read bandwidth from this memory (bytes/s)
system.mem_ctrls1.bw_read::switch_cpus_1.inst        13757                       # Total read bandwidth from this memory (bytes/s)
system.mem_ctrls1.bw_read::switch_cpus_1.data      1235407                       # Total read bandwidth from this memory (bytes/s)
system.mem_ctrls1.bw_read::total              8643984                       # Total read bandwidth from this memory (bytes/s)
system.mem_ctrls1.bw_inst_read::cpu.inst          117                       # Instruction read bandwidth from this memory (bytes/s)
system.mem_ctrls1.bw_inst_read::switch_cpus.inst       107541                       # Instruction read bandwidth from this memory (bytes/s)
system.mem_ctrls1.bw_inst_read::switch_cpus_1.inst        13757                       # Instruction read bandwidth from this memory (bytes/s)
system.mem_ctrls1.bw_inst_read::total          121416                       # Instruction read bandwidth from this memory (bytes/s)
system.mem_ctrls1.bw_write::writebacks        5324373                       # Write bandwidth from this memory (bytes/s)
system.mem_ctrls1.bw_write::total             5324373                       # Write bandwidth from this memory (bytes/s)
system.mem_ctrls1.bw_total::writebacks        5324373                       # Total bandwidth to/from this memory (bytes/s)
system.mem_ctrls1.bw_total::cpu.inst              117                       # Total bandwidth to/from this memory (bytes/s)
system.mem_ctrls1.bw_total::cpu.data              176                       # Total bandwidth to/from this memory (bytes/s)
system.mem_ctrls1.bw_total::switch_cpus.inst       107541                       # Total bandwidth to/from this memory (bytes/s)
system.mem_ctrls1.bw_total::switch_cpus.data      7286986                       # Total bandwidth to/from this memory (bytes/s)
system.mem_ctrls1.bw_total::switch_cpus_1.inst        13757                       # Total bandwidth to/from this memory (bytes/s)
system.mem_ctrls1.bw_total::switch_cpus_1.data      1235407                       # Total bandwidth to/from this memory (bytes/s)
system.mem_ctrls1.bw_total::total            13968357                       # Total bandwidth to/from this memory (bytes/s)
system.mem_ctrls1.readReqs                     147655                       # Number of read requests accepted
system.mem_ctrls1.writeReqs                     90950                       # Number of write requests accepted
system.mem_ctrls1.readBursts                   147655                       # Number of DRAM read bursts, including those serviced by the write queue
system.mem_ctrls1.writeBursts                   90950                       # Number of DRAM write bursts, including those merged in the write queue
system.mem_ctrls1.bytesReadDRAM               9444224                       # Total number of bytes read from DRAM
system.mem_ctrls1.bytesReadWrQ                   5696                       # Total number of bytes read from write queue
system.mem_ctrls1.bytesWritten                5819264                       # Total number of bytes written to DRAM
system.mem_ctrls1.bytesReadSys                9449920                       # Total read bytes from the system interface side
system.mem_ctrls1.bytesWrittenSys             5820800                       # Total written bytes from the system interface side
system.mem_ctrls1.servicedByWrQ                    89                       # Number of DRAM read bursts serviced by the write queue
system.mem_ctrls1.mergedWrBursts                    0                       # Number of DRAM write bursts merged with an existing one
system.mem_ctrls1.neitherReadNorWriteReqs            0                       # Number of requests that are neither read nor write
system.mem_ctrls1.perBankRdBursts::0             9013                       # Per bank write bursts
system.mem_ctrls1.perBankRdBursts::1             9171                       # Per bank write bursts
system.mem_ctrls1.perBankRdBursts::2             9363                       # Per bank write bursts
system.mem_ctrls1.perBankRdBursts::3             9684                       # Per bank write bursts
system.mem_ctrls1.perBankRdBursts::4             9604                       # Per bank write bursts
system.mem_ctrls1.perBankRdBursts::5             9533                       # Per bank write bursts
system.mem_ctrls1.perBankRdBursts::6             8725                       # Per bank write bursts
system.mem_ctrls1.perBankRdBursts::7             9083                       # Per bank write bursts
system.mem_ctrls1.perBankRdBursts::8             9419                       # Per bank write bursts
system.mem_ctrls1.perBankRdBursts::9             9613                       # Per bank write bursts
system.mem_ctrls1.perBankRdBursts::10            9064                       # Per bank write bursts
system.mem_ctrls1.perBankRdBursts::11            9523                       # Per bank write bursts
system.mem_ctrls1.perBankRdBursts::12            9226                       # Per bank write bursts
system.mem_ctrls1.perBankRdBursts::13            9035                       # Per bank write bursts
system.mem_ctrls1.perBankRdBursts::14            8693                       # Per bank write bursts
system.mem_ctrls1.perBankRdBursts::15            8817                       # Per bank write bursts
system.mem_ctrls1.perBankWrBursts::0             5775                       # Per bank write bursts
system.mem_ctrls1.perBankWrBursts::1             5854                       # Per bank write bursts
system.mem_ctrls1.perBankWrBursts::2             5814                       # Per bank write bursts
system.mem_ctrls1.perBankWrBursts::3             5932                       # Per bank write bursts
system.mem_ctrls1.perBankWrBursts::4             5847                       # Per bank write bursts
system.mem_ctrls1.perBankWrBursts::5             5821                       # Per bank write bursts
system.mem_ctrls1.perBankWrBursts::6             5229                       # Per bank write bursts
system.mem_ctrls1.perBankWrBursts::7             5427                       # Per bank write bursts
system.mem_ctrls1.perBankWrBursts::8             5387                       # Per bank write bursts
system.mem_ctrls1.perBankWrBursts::9             5539                       # Per bank write bursts
system.mem_ctrls1.perBankWrBursts::10            5702                       # Per bank write bursts
system.mem_ctrls1.perBankWrBursts::11            6178                       # Per bank write bursts
system.mem_ctrls1.perBankWrBursts::12            5859                       # Per bank write bursts
system.mem_ctrls1.perBankWrBursts::13            5609                       # Per bank write bursts
system.mem_ctrls1.perBankWrBursts::14            5347                       # Per bank write bursts
system.mem_ctrls1.perBankWrBursts::15            5606                       # Per bank write bursts
system.mem_ctrls1.numRdRetry                        0                       # Number of times read queue was full causing retry
system.mem_ctrls1.numWrRetry                        0                       # Number of times write queue was full causing retry
system.mem_ctrls1.totGap                 1093234542795                       # Total gap between requests
system.mem_ctrls1.readPktSize::0                    0                       # Read request sizes (log2)
system.mem_ctrls1.readPktSize::1                    0                       # Read request sizes (log2)
system.mem_ctrls1.readPktSize::2                    0                       # Read request sizes (log2)
system.mem_ctrls1.readPktSize::3                    0                       # Read request sizes (log2)
system.mem_ctrls1.readPktSize::4                    0                       # Read request sizes (log2)
system.mem_ctrls1.readPktSize::5                    0                       # Read request sizes (log2)
system.mem_ctrls1.readPktSize::6               147655                       # Read request sizes (log2)
system.mem_ctrls1.writePktSize::0                   0                       # Write request sizes (log2)
system.mem_ctrls1.writePktSize::1                   0                       # Write request sizes (log2)
system.mem_ctrls1.writePktSize::2                   0                       # Write request sizes (log2)
system.mem_ctrls1.writePktSize::3                   0                       # Write request sizes (log2)
system.mem_ctrls1.writePktSize::4                   0                       # Write request sizes (log2)
system.mem_ctrls1.writePktSize::5                   0                       # Write request sizes (log2)
system.mem_ctrls1.writePktSize::6               90950                       # Write request sizes (log2)
system.mem_ctrls1.rdQLenPdf::0                 145798                       # What read queue length does an incoming req see
system.mem_ctrls1.rdQLenPdf::1                   1726                       # What read queue length does an incoming req see
system.mem_ctrls1.rdQLenPdf::2                     42                       # What read queue length does an incoming req see
system.mem_ctrls1.rdQLenPdf::3                      0                       # What read queue length does an incoming req see
system.mem_ctrls1.rdQLenPdf::4                      0                       # What read queue length does an incoming req see
system.mem_ctrls1.rdQLenPdf::5                      0                       # What read queue length does an incoming req see
system.mem_ctrls1.rdQLenPdf::6                      0                       # What read queue length does an incoming req see
system.mem_ctrls1.rdQLenPdf::7                      0                       # What read queue length does an incoming req see
system.mem_ctrls1.rdQLenPdf::8                      0                       # What read queue length does an incoming req see
system.mem_ctrls1.rdQLenPdf::9                      0                       # What read queue length does an incoming req see
system.mem_ctrls1.rdQLenPdf::10                     0                       # What read queue length does an incoming req see
system.mem_ctrls1.rdQLenPdf::11                     0                       # What read queue length does an incoming req see
system.mem_ctrls1.rdQLenPdf::12                     0                       # What read queue length does an incoming req see
system.mem_ctrls1.rdQLenPdf::13                     0                       # What read queue length does an incoming req see
system.mem_ctrls1.rdQLenPdf::14                     0                       # What read queue length does an incoming req see
system.mem_ctrls1.rdQLenPdf::15                     0                       # What read queue length does an incoming req see
system.mem_ctrls1.rdQLenPdf::16                     0                       # What read queue length does an incoming req see
system.mem_ctrls1.rdQLenPdf::17                     0                       # What read queue length does an incoming req see
system.mem_ctrls1.rdQLenPdf::18                     0                       # What read queue length does an incoming req see
system.mem_ctrls1.rdQLenPdf::19                     0                       # What read queue length does an incoming req see
system.mem_ctrls1.rdQLenPdf::20                     0                       # What read queue length does an incoming req see
system.mem_ctrls1.rdQLenPdf::21                     0                       # What read queue length does an incoming req see
system.mem_ctrls1.rdQLenPdf::22                     0                       # What read queue length does an incoming req see
system.mem_ctrls1.rdQLenPdf::23                     0                       # What read queue length does an incoming req see
system.mem_ctrls1.rdQLenPdf::24                     0                       # What read queue length does an incoming req see
system.mem_ctrls1.rdQLenPdf::25                     0                       # What read queue length does an incoming req see
system.mem_ctrls1.rdQLenPdf::26                     0                       # What read queue length does an incoming req see
system.mem_ctrls1.rdQLenPdf::27                     0                       # What read queue length does an incoming req see
system.mem_ctrls1.rdQLenPdf::28                     0                       # What read queue length does an incoming req see
system.mem_ctrls1.rdQLenPdf::29                     0                       # What read queue length does an incoming req see
system.mem_ctrls1.rdQLenPdf::30                     0                       # What read queue length does an incoming req see
system.mem_ctrls1.rdQLenPdf::31                     0                       # What read queue length does an incoming req see
system.mem_ctrls1.wrQLenPdf::0                      2                       # What write queue length does an incoming req see
system.mem_ctrls1.wrQLenPdf::1                      2                       # What write queue length does an incoming req see
system.mem_ctrls1.wrQLenPdf::2                      2                       # What write queue length does an incoming req see
system.mem_ctrls1.wrQLenPdf::3                      2                       # What write queue length does an incoming req see
system.mem_ctrls1.wrQLenPdf::4                      2                       # What write queue length does an incoming req see
system.mem_ctrls1.wrQLenPdf::5                      2                       # What write queue length does an incoming req see
system.mem_ctrls1.wrQLenPdf::6                      2                       # What write queue length does an incoming req see
system.mem_ctrls1.wrQLenPdf::7                      2                       # What write queue length does an incoming req see
system.mem_ctrls1.wrQLenPdf::8                      2                       # What write queue length does an incoming req see
system.mem_ctrls1.wrQLenPdf::9                      2                       # What write queue length does an incoming req see
system.mem_ctrls1.wrQLenPdf::10                     2                       # What write queue length does an incoming req see
system.mem_ctrls1.wrQLenPdf::11                     2                       # What write queue length does an incoming req see
system.mem_ctrls1.wrQLenPdf::12                     2                       # What write queue length does an incoming req see
system.mem_ctrls1.wrQLenPdf::13                     2                       # What write queue length does an incoming req see
system.mem_ctrls1.wrQLenPdf::14                     2                       # What write queue length does an incoming req see
system.mem_ctrls1.wrQLenPdf::15                  4095                       # What write queue length does an incoming req see
system.mem_ctrls1.wrQLenPdf::16                  4144                       # What write queue length does an incoming req see
system.mem_ctrls1.wrQLenPdf::17                  5078                       # What write queue length does an incoming req see
system.mem_ctrls1.wrQLenPdf::18                  5146                       # What write queue length does an incoming req see
system.mem_ctrls1.wrQLenPdf::19                  5157                       # What write queue length does an incoming req see
system.mem_ctrls1.wrQLenPdf::20                  5167                       # What write queue length does an incoming req see
system.mem_ctrls1.wrQLenPdf::21                  5167                       # What write queue length does an incoming req see
system.mem_ctrls1.wrQLenPdf::22                  5160                       # What write queue length does an incoming req see
system.mem_ctrls1.wrQLenPdf::23                  5181                       # What write queue length does an incoming req see
system.mem_ctrls1.wrQLenPdf::24                  5169                       # What write queue length does an incoming req see
system.mem_ctrls1.wrQLenPdf::25                  5162                       # What write queue length does an incoming req see
system.mem_ctrls1.wrQLenPdf::26                  5168                       # What write queue length does an incoming req see
system.mem_ctrls1.wrQLenPdf::27                  5170                       # What write queue length does an incoming req see
system.mem_ctrls1.wrQLenPdf::28                  5187                       # What write queue length does an incoming req see
system.mem_ctrls1.wrQLenPdf::29                  5199                       # What write queue length does an incoming req see
system.mem_ctrls1.wrQLenPdf::30                  5155                       # What write queue length does an incoming req see
system.mem_ctrls1.wrQLenPdf::31                  5135                       # What write queue length does an incoming req see
system.mem_ctrls1.wrQLenPdf::32                  5135                       # What write queue length does an incoming req see
system.mem_ctrls1.wrQLenPdf::33                   116                       # What write queue length does an incoming req see
system.mem_ctrls1.wrQLenPdf::34                    20                       # What write queue length does an incoming req see
system.mem_ctrls1.wrQLenPdf::35                     6                       # What write queue length does an incoming req see
system.mem_ctrls1.wrQLenPdf::36                     2                       # What write queue length does an incoming req see
system.mem_ctrls1.wrQLenPdf::37                     1                       # What write queue length does an incoming req see
system.mem_ctrls1.wrQLenPdf::38                     0                       # What write queue length does an incoming req see
system.mem_ctrls1.wrQLenPdf::39                     0                       # What write queue length does an incoming req see
system.mem_ctrls1.wrQLenPdf::40                     0                       # What write queue length does an incoming req see
system.mem_ctrls1.wrQLenPdf::41                     0                       # What write queue length does an incoming req see
system.mem_ctrls1.wrQLenPdf::42                     0                       # What write queue length does an incoming req see
system.mem_ctrls1.wrQLenPdf::43                     0                       # What write queue length does an incoming req see
system.mem_ctrls1.wrQLenPdf::44                     0                       # What write queue length does an incoming req see
system.mem_ctrls1.wrQLenPdf::45                     0                       # What write queue length does an incoming req see
system.mem_ctrls1.wrQLenPdf::46                     0                       # What write queue length does an incoming req see
system.mem_ctrls1.wrQLenPdf::47                     0                       # What write queue length does an incoming req see
system.mem_ctrls1.wrQLenPdf::48                     0                       # What write queue length does an incoming req see
system.mem_ctrls1.wrQLenPdf::49                     0                       # What write queue length does an incoming req see
system.mem_ctrls1.wrQLenPdf::50                     0                       # What write queue length does an incoming req see
system.mem_ctrls1.wrQLenPdf::51                     0                       # What write queue length does an incoming req see
system.mem_ctrls1.wrQLenPdf::52                     0                       # What write queue length does an incoming req see
system.mem_ctrls1.wrQLenPdf::53                     0                       # What write queue length does an incoming req see
system.mem_ctrls1.wrQLenPdf::54                     0                       # What write queue length does an incoming req see
system.mem_ctrls1.wrQLenPdf::55                     0                       # What write queue length does an incoming req see
system.mem_ctrls1.wrQLenPdf::56                     0                       # What write queue length does an incoming req see
system.mem_ctrls1.wrQLenPdf::57                     0                       # What write queue length does an incoming req see
system.mem_ctrls1.wrQLenPdf::58                     0                       # What write queue length does an incoming req see
system.mem_ctrls1.wrQLenPdf::59                     0                       # What write queue length does an incoming req see
system.mem_ctrls1.wrQLenPdf::60                     0                       # What write queue length does an incoming req see
system.mem_ctrls1.wrQLenPdf::61                     0                       # What write queue length does an incoming req see
system.mem_ctrls1.wrQLenPdf::62                     0                       # What write queue length does an incoming req see
system.mem_ctrls1.wrQLenPdf::63                     0                       # What write queue length does an incoming req see
system.mem_ctrls1.bytesPerActivate::samples       210458                       # Bytes accessed per row activation
system.mem_ctrls1.bytesPerActivate::mean    72.525102                       # Bytes accessed per row activation
system.mem_ctrls1.bytesPerActivate::gmean    68.098165                       # Bytes accessed per row activation
system.mem_ctrls1.bytesPerActivate::stdev    55.012720                       # Bytes accessed per row activation
system.mem_ctrls1.bytesPerActivate::0-127       196025     93.14%     93.14% # Bytes accessed per row activation
system.mem_ctrls1.bytesPerActivate::128-255        12524      5.95%     99.09% # Bytes accessed per row activation
system.mem_ctrls1.bytesPerActivate::256-383          798      0.38%     99.47% # Bytes accessed per row activation
system.mem_ctrls1.bytesPerActivate::384-511          272      0.13%     99.60% # Bytes accessed per row activation
system.mem_ctrls1.bytesPerActivate::512-639          188      0.09%     99.69% # Bytes accessed per row activation
system.mem_ctrls1.bytesPerActivate::640-767          138      0.07%     99.76% # Bytes accessed per row activation
system.mem_ctrls1.bytesPerActivate::768-895          105      0.05%     99.81% # Bytes accessed per row activation
system.mem_ctrls1.bytesPerActivate::896-1023           62      0.03%     99.84% # Bytes accessed per row activation
system.mem_ctrls1.bytesPerActivate::1024-1151          346      0.16%    100.00% # Bytes accessed per row activation
system.mem_ctrls1.bytesPerActivate::total       210458                       # Bytes accessed per row activation
system.mem_ctrls1.rdPerTurnAround::samples         5136                       # Reads before turning the bus around for writes
system.mem_ctrls1.rdPerTurnAround::mean     28.731698                       # Reads before turning the bus around for writes
system.mem_ctrls1.rdPerTurnAround::stdev   361.457008                       # Reads before turning the bus around for writes
system.mem_ctrls1.rdPerTurnAround::0-1023         5135     99.98%     99.98% # Reads before turning the bus around for writes
system.mem_ctrls1.rdPerTurnAround::25600-26623            1      0.02%    100.00% # Reads before turning the bus around for writes
system.mem_ctrls1.rdPerTurnAround::total         5136                       # Reads before turning the bus around for writes
system.mem_ctrls1.wrPerTurnAround::samples         5136                       # Writes before turning the bus around for reads
system.mem_ctrls1.wrPerTurnAround::mean     17.703660                       # Writes before turning the bus around for reads
system.mem_ctrls1.wrPerTurnAround::gmean    17.678480                       # Writes before turning the bus around for reads
system.mem_ctrls1.wrPerTurnAround::stdev     0.936023                       # Writes before turning the bus around for reads
system.mem_ctrls1.wrPerTurnAround::16            1009     19.65%     19.65% # Writes before turning the bus around for reads
system.mem_ctrls1.wrPerTurnAround::17              25      0.49%     20.13% # Writes before turning the bus around for reads
system.mem_ctrls1.wrPerTurnAround::18            3682     71.69%     91.82% # Writes before turning the bus around for reads
system.mem_ctrls1.wrPerTurnAround::19             357      6.95%     98.77% # Writes before turning the bus around for reads
system.mem_ctrls1.wrPerTurnAround::20              44      0.86%     99.63% # Writes before turning the bus around for reads
system.mem_ctrls1.wrPerTurnAround::21              10      0.19%     99.82% # Writes before turning the bus around for reads
system.mem_ctrls1.wrPerTurnAround::22               5      0.10%     99.92% # Writes before turning the bus around for reads
system.mem_ctrls1.wrPerTurnAround::23               2      0.04%     99.96% # Writes before turning the bus around for reads
system.mem_ctrls1.wrPerTurnAround::24               1      0.02%     99.98% # Writes before turning the bus around for reads
system.mem_ctrls1.wrPerTurnAround::28               1      0.02%    100.00% # Writes before turning the bus around for reads
system.mem_ctrls1.wrPerTurnAround::total         5136                       # Writes before turning the bus around for reads
system.mem_ctrls1.totQLat                 27326258664                       # Total ticks spent queuing
system.mem_ctrls1.totMemAccLat            30093121164                       # Total ticks spent from burst creation until serviced by the DRAM
system.mem_ctrls1.totBusLat                 737830000                       # Total ticks spent in databus transfers
system.mem_ctrls1.avgQLat                   185179.91                       # Average queueing delay per DRAM burst
system.mem_ctrls1.avgBusLat                   5000.00                       # Average bus latency per DRAM burst
system.mem_ctrls1.avgMemAccLat              203929.91                       # Average memory access latency per DRAM burst
system.mem_ctrls1.avgRdBW                        8.64                       # Average DRAM read bandwidth in MiByte/s
system.mem_ctrls1.avgWrBW                        5.32                       # Average achieved write bandwidth in MiByte/s
system.mem_ctrls1.avgRdBWSys                     8.64                       # Average system read bandwidth in MiByte/s
system.mem_ctrls1.avgWrBWSys                     5.32                       # Average system write bandwidth in MiByte/s
system.mem_ctrls1.peakBW                     12800.00                       # Theoretical peak bandwidth in MiByte/s
system.mem_ctrls1.busUtil                        0.11                       # Data bus utilization in percentage
system.mem_ctrls1.busUtilRead                    0.07                       # Data bus utilization in percentage for reads
system.mem_ctrls1.busUtilWrite                   0.04                       # Data bus utilization in percentage for writes
system.mem_ctrls1.avgRdQLen                      1.00                       # Average read queue length when enqueuing
system.mem_ctrls1.avgWrQLen                     20.93                       # Average write queue length when enqueuing
system.mem_ctrls1.readRowHits                   19103                       # Number of row buffer hits during reads
system.mem_ctrls1.writeRowHits                   8931                       # Number of row buffer hits during writes
system.mem_ctrls1.readRowHitRate                12.95                       # Row buffer hit rate for reads
system.mem_ctrls1.writeRowHitRate                9.82                       # Row buffer hit rate for writes
system.mem_ctrls1.avgGap                   4581775.50                       # Average gap between requests
system.mem_ctrls1.pageHitRate                   11.75                       # Row buffer hit rate, read and write combined
system.mem_ctrls1_0.actEnergy               755976060                       # Energy for activate commands per rank (pJ)
system.mem_ctrls1_0.preEnergy               401810805                       # Energy for precharge commands per rank (pJ)
system.mem_ctrls1_0.readEnergy              529616640                       # Energy for read commands per rank (pJ)
system.mem_ctrls1_0.writeEnergy             238548780                       # Energy for write commands per rank (pJ)
system.mem_ctrls1_0.refreshEnergy        57499572000.000015                       # Energy for refresh commands per rank (pJ)
system.mem_ctrls1_0.actBackEnergy         19839329940                       # Energy for active background per rank (pJ)
system.mem_ctrls1_0.preBackEnergy          3362251200                       # Energy for precharge background per rank (pJ)
system.mem_ctrls1_0.actPowerDownEnergy   113893036650                       # Energy for active power-down per rank (pJ)
system.mem_ctrls1_0.prePowerDownEnergy    95761932480                       # Energy for precharge power-down per rank (pJ)
system.mem_ctrls1_0.selfRefreshEnergy    143527387725                       # Energy for self refresh per rank (pJ)
system.mem_ctrls1_0.totalEnergy          435835718100                       # Total energy per rank (pJ)
system.mem_ctrls1_0.averagePower           398.665482                       # Core power per rank (mW)
system.mem_ctrls1_0.totalIdleTime        1040909997133                       # Total Idle time Per DRAM Rank
system.mem_ctrls1_0.memoryStateTime::IDLE   6731626578                       # Time in different power states
system.mem_ctrls1_0.memoryStateTime::REF  24472112000                       # Time in different power states
system.mem_ctrls1_0.memoryStateTime::SREF 541769688312                       # Time in different power states
system.mem_ctrls1_0.memoryStateTime::PRE_PDN 249380062059                       # Time in different power states
system.mem_ctrls1_0.memoryStateTime::ACT  21117562601                       # Time in different power states
system.mem_ctrls1_0.memoryStateTime::ACT_PDN 249765595472                       # Time in different power states
system.mem_ctrls1_1.actEnergy               746694060                       # Energy for activate commands per rank (pJ)
system.mem_ctrls1_1.preEnergy               396877305                       # Energy for precharge commands per rank (pJ)
system.mem_ctrls1_1.readEnergy              524004600                       # Energy for read commands per rank (pJ)
system.mem_ctrls1_1.writeEnergy             236084940                       # Energy for write commands per rank (pJ)
system.mem_ctrls1_1.refreshEnergy        57394468560.000015                       # Energy for refresh commands per rank (pJ)
system.mem_ctrls1_1.actBackEnergy         19838884770                       # Energy for active background per rank (pJ)
system.mem_ctrls1_1.preBackEnergy          3354510720                       # Energy for precharge background per rank (pJ)
system.mem_ctrls1_1.actPowerDownEnergy   113298649200                       # Energy for active power-down per rank (pJ)
system.mem_ctrls1_1.prePowerDownEnergy    95748034080                       # Energy for precharge power-down per rank (pJ)
system.mem_ctrls1_1.selfRefreshEnergy    143855873085                       # Energy for self refresh per rank (pJ)
system.mem_ctrls1_1.totalEnergy          435421253430                       # Total energy per rank (pJ)
system.mem_ctrls1_1.averagePower           398.286363                       # Core power per rank (mW)
system.mem_ctrls1_1.totalIdleTime        1040933808904                       # Total Idle time Per DRAM Rank
system.mem_ctrls1_1.memoryStateTime::IDLE   6719531787                       # Time in different power states
system.mem_ctrls1_1.memoryStateTime::REF  24427610000                       # Time in different power states
system.mem_ctrls1_1.memoryStateTime::SREF 543128244272                       # Time in different power states
system.mem_ctrls1_1.memoryStateTime::PRE_PDN 249343932471                       # Time in different power states
system.mem_ctrls1_1.memoryStateTime::ACT  21155439766                       # Time in different power states
system.mem_ctrls1_1.memoryStateTime::ACT_PDN 248461888726                       # Time in different power states
system.pwrStateResidencyTicks::UNDEFINED 18746578037952                       # Cumulative time (in ticks) in various power states
system.cpu.branchPred.lookups                       3                       # Number of BP lookups
system.cpu.branchPred.condPredicted                 1                       # Number of conditional branches predicted
system.cpu.branchPred.condIncorrect                 1                       # Number of conditional branches incorrect
system.cpu.branchPred.BTBLookups                    2                       # Number of BTB lookups
system.cpu.branchPred.BTBHits                       0                       # Number of BTB hits
system.cpu.branchPred.BTBCorrect                    0                       # Number of correct BTB predictions (this stat may not work properly.
system.cpu.branchPred.BTBHitPct              0.000000                       # BTB Hit Percentage
system.cpu.branchPred.usedRAS                       0                       # Number of times the RAS was used to get a target.
system.cpu.branchPred.RASInCorrect                  0                       # Number of incorrect RAS predictions.
system.cpu.branchPred.indirectLookups               0                       # Number of indirect predictor lookups.
system.cpu.branchPred.indirectHits                  0                       # Number of indirect target hits.
system.cpu.branchPred.indirectMisses                0                       # Number of indirect misses.
system.cpu.branchPredindirectMispredicted            0                       # Number of mispredicted indirect branches.
system.cpu_voltage_domain.voltage                   1                       # Voltage in Volts
system.cpu_clk_domain.clock                       333                       # Clock period in ticks
system.cpu.dtb.fetch_hits                           0                       # ITB hits
system.cpu.dtb.fetch_misses                         0                       # ITB misses
system.cpu.dtb.fetch_acv                            0                       # ITB acv
system.cpu.dtb.fetch_accesses                       0                       # ITB accesses
system.cpu.dtb.read_hits                            3                       # DTB read hits
system.cpu.dtb.read_misses                          0                       # DTB read misses
system.cpu.dtb.read_acv                             0                       # DTB read access violations
system.cpu.dtb.read_accesses                        3                       # DTB read accesses
system.cpu.dtb.write_hits                          11                       # DTB write hits
system.cpu.dtb.write_misses                         0                       # DTB write misses
system.cpu.dtb.write_acv                            0                       # DTB write access violations
system.cpu.dtb.write_accesses                      11                       # DTB write accesses
system.cpu.dtb.data_hits                           14                       # DTB hits
system.cpu.dtb.data_misses                          0                       # DTB misses
system.cpu.dtb.data_acv                             0                       # DTB access violations
system.cpu.dtb.data_accesses                       14                       # DTB accesses
system.cpu.itb.fetch_hits                           6                       # ITB hits
system.cpu.itb.fetch_misses                         0                       # ITB misses
system.cpu.itb.fetch_acv                            0                       # ITB acv
system.cpu.itb.fetch_accesses                       6                       # ITB accesses
system.cpu.itb.read_hits                            0                       # DTB read hits
system.cpu.itb.read_misses                          0                       # DTB read misses
system.cpu.itb.read_acv                             0                       # DTB read access violations
system.cpu.itb.read_accesses                        0                       # DTB read accesses
system.cpu.itb.write_hits                           0                       # DTB write hits
system.cpu.itb.write_misses                         0                       # DTB write misses
system.cpu.itb.write_acv                            0                       # DTB write access violations
system.cpu.itb.write_accesses                       0                       # DTB write accesses
system.cpu.itb.data_hits                            0                       # DTB hits
system.cpu.itb.data_misses                          0                       # DTB misses
system.cpu.itb.data_acv                             0                       # DTB access violations
system.cpu.itb.data_accesses                        0                       # DTB accesses
system.cpu.workload.num_syscalls                    0                       # Number of system calls
system.cpu.pwrStateResidencyTicks::ON    1093236647022                       # Cumulative time (in ticks) in various power states
system.cpu.numCycles                              884                       # number of cpu cycles simulated
system.cpu.numWorkItemsStarted                      0                       # number of work items this cpu started
system.cpu.numWorkItemsCompleted                    0                       # number of work items this cpu completed
system.cpu.fetch.icacheStallCycles                 63                       # Number of cycles fetch is stalled on an Icache miss
system.cpu.fetch.Insts                             31                       # Number of instructions fetch has processed
system.cpu.fetch.Branches                           3                       # Number of branches that fetch encountered
system.cpu.fetch.Cycles                             5                       # Number of cycles fetch has run and was not squashing or blocked
system.cpu.fetch.SquashCycles                       5                       # Number of cycles fetch has spent squashing
system.cpu.fetch.PendingDrainCycles                 8                       # Number of cycles fetch has spent waiting on pipes to drain
system.cpu.fetch.CacheLines                         6                       # Number of cache lines fetched
system.cpu.fetch.IcacheSquashes                     3                       # Number of outstanding Icache misses that were squashed
system.cpu.fetch.rateDist::samples                 78                       # Number of instructions fetched each cycle (Total)
system.cpu.fetch.rateDist::mean              0.397436                       # Number of instructions fetched each cycle (Total)
system.cpu.fetch.rateDist::stdev             1.646245                       # Number of instructions fetched each cycle (Total)
system.cpu.fetch.rateDist::underflows               0      0.00%      0.00% # Number of instructions fetched each cycle (Total)
system.cpu.fetch.rateDist::0                       73     93.59%     93.59% # Number of instructions fetched each cycle (Total)
system.cpu.fetch.rateDist::1                        0      0.00%     93.59% # Number of instructions fetched each cycle (Total)
system.cpu.fetch.rateDist::2                        1      1.28%     94.87% # Number of instructions fetched each cycle (Total)
system.cpu.fetch.rateDist::3                        0      0.00%     94.87% # Number of instructions fetched each cycle (Total)
system.cpu.fetch.rateDist::4                        0      0.00%     94.87% # Number of instructions fetched each cycle (Total)
system.cpu.fetch.rateDist::5                        1      1.28%     96.15% # Number of instructions fetched each cycle (Total)
system.cpu.fetch.rateDist::6                        0      0.00%     96.15% # Number of instructions fetched each cycle (Total)
[...]
system.switch_cpus_1.iq.int_inst_queue_writes    350653192                       # Number of integer instruction queue writes
system.switch_cpus_1.iq.int_inst_queue_wakeup_accesses    240903483                       # Number of integer instruction queue wakeup accesses
system.switch_cpus_1.iq.fp_inst_queue_reads      4182971                       # Number of floating instruction queue reads
system.switch_cpus_1.iq.fp_inst_queue_writes      2880712                       # Number of floating instruction queue writes
system.switch_cpus_1.iq.fp_inst_queue_wakeup_accesses      1991066                       # Number of floating instruction queue wakeup accesses
system.switch_cpus_1.iq.int_alu_accesses    258534858                       # Number of integer alu accesses
system.switch_cpus_1.iq.fp_alu_accesses       2117873                       # Number of floating point alu accesses
system.switch_cpus_1.iew.lsq.thread0.forwLoads      2612858                       # Number of loads that had data forwarded from stores
system.switch_cpus_1.iew.lsq.thread0.invAddrLoads            0                       # Number of loads ignored due to an invalid address
system.switch_cpus_1.iew.lsq.thread0.squashedLoads     18021717                       # Number of loads squashed
system.switch_cpus_1.iew.lsq.thread0.ignoredResponses        31398                       # Number of memory responses ignored because the instruction is squashed
system.switch_cpus_1.iew.lsq.thread0.memOrderViolation        34117                       # Number of memory ordering violations
system.switch_cpus_1.iew.lsq.thread0.squashedStores      5656446                       # Number of stores squashed
system.switch_cpus_1.iew.lsq.thread0.invAddrSwpfs            0                       # Number of software prefetches ignored due to an invalid address
system.switch_cpus_1.iew.lsq.thread0.blockedLoads            0                       # Number of blocked loads due to partial load-store forwarding
system.switch_cpus_1.iew.lsq.thread0.rescheduledLoads         9528                       # Number of loads that were rescheduled
system.switch_cpus_1.iew.lsq.thread0.cacheBlocked      1549921                       # Number of times an access to memory failed due to the cache being blocked
system.switch_cpus_1.iew.iewIdleCycles              0                       # Number of cycles IEW is idle
system.switch_cpus_1.iew.iewSquashCycles      3775305                       # Number of cycles IEW is squashing
system.switch_cpus_1.iew.iewBlockCycles      10021915                       # Number of cycles IEW is blocking
system.switch_cpus_1.iew.iewUnblockCycles      1713095                       # Number of cycles IEW is unblocking
system.switch_cpus_1.iew.iewDispatchedInsts    283590250                       # Number of instructions dispatched to IQ
system.switch_cpus_1.iew.iewDispSquashedInsts      1389929                       # Number of squashed instructions skipped by dispatch
system.switch_cpus_1.iew.iewDispLoadInsts     62143471                       # Number of dispatched load instructions
system.switch_cpus_1.iew.iewDispStoreInsts     27956291                       # Number of dispatched store instructions
system.switch_cpus_1.iew.iewDispNonSpecInsts          177                       # Number of dispatched non-speculative instructions
system.switch_cpus_1.iew.iewIQFullEvents        23730                       # Number of times the IQ has become full, causing a stall
system.switch_cpus_1.iew.iewLSQFullEvents      1644849                       # Number of times the LSQ has become full, causing a stall
system.switch_cpus_1.iew.memOrderViolationEvents        34117                       # Number of memory order violations
system.switch_cpus_1.iew.predictedTakenIncorrect      2204150                       # Number of branches that were predicted taken incorrectly
system.switch_cpus_1.iew.predictedNotTakenIncorrect      1990882                       # Number of branches that were predicted not taken incorrectly
system.switch_cpus_1.iew.branchMispredicts      4195032                       # Number of branch mispredicts detected at execute
system.switch_cpus_1.iew.iewExecutedInsts    249037025                       # Number of executed instructions
system.switch_cpus_1.iew.iewExecLoadInsts     57930320                       # Number of load instructions executed
system.switch_cpus_1.iew.iewExecSquashedInsts      6222923                       # Number of squashed instructions skipped in execute
system.switch_cpus_1.iew.exec_swp                   0                       # number of swp insts executed
system.switch_cpus_1.iew.exec_nop             6838978                       # number of nop insts executed
system.switch_cpus_1.iew.exec_refs           83144439                       # number of memory reference insts executed
system.switch_cpus_1.iew.exec_branches       36326935                       # Number of branches executed
system.switch_cpus_1.iew.exec_stores         25214119                       # Number of stores executed
system.switch_cpus_1.iew.exec_rate           1.490915                       # Inst execution rate
system.switch_cpus_1.iew.wb_sent            244533161                       # cumulative count of insts sent to commit
system.switch_cpus_1.iew.wb_count           242894549                       # cumulative count of insts written-back
system.switch_cpus_1.iew.wb_producers       136957945                       # num instructions producing a value
system.switch_cpus_1.iew.wb_consumers       173318807                       # num instructions consuming a value
system.switch_cpus_1.iew.wb_rate             1.454142                       # insts written-back per cycle
system.switch_cpus_1.iew.wb_fanout           0.790208                       # average fanout of values written-back
system.switch_cpus_1.commit.commitSquashedInsts     77257503                       # The number of squashed insts skipped by commit
system.switch_cpus_1.commit.commitNonSpecStalls          176                       # The number of times commit has been forced to stall to communicate backwards
system.switch_cpus_1.commit.branchMispredicts      3682365                       # The number of times a branch was mispredicted
system.switch_cpus_1.commit.committed_per_cycle::samples    149906855                       # Number of insts commited each cycle
system.switch_cpus_1.commit.committed_per_cycle::mean     1.369871                       # Number of insts commited each cycle
system.switch_cpus_1.commit.committed_per_cycle::stdev     2.403508                       # Number of insts commited each cycle
system.switch_cpus_1.commit.committed_per_cycle::underflows            0      0.00%      0.00% # Number of insts commited each cycle
system.switch_cpus_1.commit.committed_per_cycle::0     88715784     59.18%     59.18% # Number of insts commited each cycle
system.switch_cpus_1.commit.committed_per_cycle::1     25356312     16.91%     76.10% # Number of insts commited each cycle
system.switch_cpus_1.commit.committed_per_cycle::2      8743096      5.83%     81.93% # Number of insts commited each cycle
system.switch_cpus_1.commit.committed_per_cycle::3      5226469      3.49%     85.41% # Number of insts commited each cycle
system.switch_cpus_1.commit.committed_per_cycle::4      3411840      2.28%     87.69% # Number of insts commited each cycle
system.switch_cpus_1.commit.committed_per_cycle::5      2726628      1.82%     89.51% # Number of insts commited each cycle
system.switch_cpus_1.commit.committed_per_cycle::6      2305503      1.54%     91.05% # Number of insts commited each cycle
system.switch_cpus_1.commit.committed_per_cycle::7      1652106      1.10%     92.15% # Number of insts commited each cycle
system.switch_cpus_1.commit.committed_per_cycle::8     11769117      7.85%    100.00% # Number of insts commited each cycle
system.switch_cpus_1.commit.committed_per_cycle::overflows            0      0.00%    100.00% # Number of insts commited each cycle
system.switch_cpus_1.commit.committed_per_cycle::min_value            0                       # Number of insts commited each cycle
system.switch_cpus_1.commit.committed_per_cycle::max_value            8                       # Number of insts commited each cycle
system.switch_cpus_1.commit.committed_per_cycle::total    149906855                       # Number of insts commited each cycle
system.switch_cpus_1.commit.committedInsts    205353107                       # Number of instructions committed
system.switch_cpus_1.commit.committedOps    205353107                       # Number of ops (including micro ops) committed
system.switch_cpus_1.commit.swp_count               0                       # Number of s/w prefetches committed
system.switch_cpus_1.commit.refs             66421579                       # Number of memory references committed
system.switch_cpus_1.commit.loads            44121734                       # Number of loads committed
system.switch_cpus_1.commit.membars                88                       # Number of memory barriers committed
system.switch_cpus_1.commit.branches         30359423                       # Number of branches committed
system.switch_cpus_1.commit.fp_insts          1786208                       # Number of committed floating point instructions.
system.switch_cpus_1.commit.int_insts       197426184                       # Number of committed integer instructions.
system.switch_cpus_1.commit.function_calls      1752736                       # Number of function calls committed.
system.switch_cpus_1.commit.op_class_0::No_OpClass      5447375      2.65%      2.65% # Class of committed instruction
system.switch_cpus_1.commit.op_class_0::IntAlu    132113930     64.34%     66.99% # Class of committed instruction
system.switch_cpus_1.commit.op_class_0::IntMult        79596      0.04%     67.03% # Class of committed instruction
system.switch_cpus_1.commit.op_class_0::IntDiv            0      0.00%     67.03% # Class of committed instruction
system.switch_cpus_1.commit.op_class_0::FloatAdd       635244      0.31%     67.34% # Class of committed instruction
system.switch_cpus_1.commit.op_class_0::FloatCmp       335099      0.16%     67.50% # Class of committed instruction
system.switch_cpus_1.commit.op_class_0::FloatCvt       272825      0.13%     67.63% # Class of committed instruction
system.switch_cpus_1.commit.op_class_0::FloatMult            0      0.00%     67.63% # Class of committed instruction
system.switch_cpus_1.commit.op_class_0::FloatMultAcc            0      0.00%     67.63% # Class of committed instruction
system.switch_cpus_1.commit.op_class_0::FloatDiv        47371      0.02%     67.65% # Class of committed instruction
system.switch_cpus_1.commit.op_class_0::FloatMisc            0      0.00%     67.65% # Class of committed instruction
system.switch_cpus_1.commit.op_class_0::FloatSqrt            0      0.00%     67.65% # Class of committed instruction
system.switch_cpus_1.commit.op_class_0::SimdAdd            0      0.00%     67.65% # Class of committed instruction
system.switch_cpus_1.commit.op_class_0::SimdAddAcc            0      0.00%     67.65% # Class of committed instruction
system.switch_cpus_1.commit.op_class_0::SimdAlu            0      0.00%     67.65% # Class of committed instruction
system.switch_cpus_1.commit.op_class_0::SimdCmp            0      0.00%     67.65% # Class of committed instruction
system.switch_cpus_1.commit.op_class_0::SimdCvt            0      0.00%     67.65% # Class of committed instruction
system.switch_cpus_1.commit.op_class_0::SimdMisc            0      0.00%     67.65% # Class of committed instruction
system.switch_cpus_1.commit.op_class_0::SimdMult            0      0.00%     67.65% # Class of committed instruction
system.switch_cpus_1.commit.op_class_0::SimdMultAcc            0      0.00%     67.65% # Class of committed instruction
system.switch_cpus_1.commit.op_class_0::SimdShift            0      0.00%     67.65% # Class of committed instruction
system.switch_cpus_1.commit.op_class_0::SimdShiftAcc            0      0.00%     67.65% # Class of committed instruction
system.switch_cpus_1.commit.op_class_0::SimdSqrt            0      0.00%     67.65% # Class of committed instruction
system.switch_cpus_1.commit.op_class_0::SimdFloatAdd            0      0.00%     67.65% # Class of committed instruction
system.switch_cpus_1.commit.op_class_0::SimdFloatAlu            0      0.00%     67.65% # Class of committed instruction
system.switch_cpus_1.commit.op_class_0::SimdFloatCmp            0      0.00%     67.65% # Class of committed instruction
system.switch_cpus_1.commit.op_class_0::SimdFloatCvt            0      0.00%     67.65% # Class of committed instruction
system.switch_cpus_1.commit.op_class_0::SimdFloatDiv            0      0.00%     67.65% # Class of committed instruction
system.switch_cpus_1.commit.op_class_0::SimdFloatMisc            0      0.00%     67.65% # Class of committed instruction
system.switch_cpus_1.commit.op_class_0::SimdFloatMult            0      0.00%     67.65% # Class of committed instruction
system.switch_cpus_1.commit.op_class_0::SimdFloatMultAcc            0      0.00%     67.65% # Class of committed instruction
system.switch_cpus_1.commit.op_class_0::SimdFloatSqrt            0      0.00%     67.65% # Class of committed instruction
system.switch_cpus_1.commit.op_class_0::MemRead     43815278     21.34%     88.99% # Class of committed instruction
system.switch_cpus_1.commit.op_class_0::MemWrite     22110720     10.77%     99.76% # Class of committed instruction
system.switch_cpus_1.commit.op_class_0::FloatMemRead       306544      0.15%     99.91% # Class of committed instruction
system.switch_cpus_1.commit.op_class_0::FloatMemWrite       189125      0.09%    100.00% # Class of committed instruction
system.switch_cpus_1.commit.op_class_0::IprAccess            0      0.00%    100.00% # Class of committed instruction
system.switch_cpus_1.commit.op_class_0::InstPrefetch            0      0.00%    100.00% # Class of committed instruction
system.switch_cpus_1.commit.op_class_0::total    205353107                       # Class of committed instruction
system.switch_cpus_1.commit.bw_lim_events     11769117                       # number cycles where commit BW limit reached
system.switch_cpus_1.rob.rob_reads          419857861                       # The number of ROB reads
system.switch_cpus_1.rob.rob_writes         577174898                       # The number of ROB writes
system.switch_cpus_1.timesIdled                835960                       # Number of times that the entire CPU went into an idle state and unscheduled itself
system.switch_cpus_1.idleCycles               5260926                       # Total number of cycles that the CPU has spent unscheduled due to idling
system.switch_cpus_1.committedInsts         200000006                       # Number of Instructions Simulated
system.switch_cpus_1.committedOps           200000006                       # Number of Ops (including micro ops) Simulated
system.switch_cpus_1.cpi                     0.835182                       # CPI: Cycles Per Instruction
system.switch_cpus_1.cpi_total               0.835182                       # CPI: Total CPI of All Threads
system.switch_cpus_1.ipc                     1.197344                       # IPC: Instructions Per Cycle
system.switch_cpus_1.ipc_total               1.197344                       # IPC: Total IPC of All Threads
system.switch_cpus_1.int_regfile_reads      334065875                       # number of integer regfile reads
system.switch_cpus_1.int_regfile_writes     183362526                       # number of integer regfile writes
system.switch_cpus_1.fp_regfile_reads         2121728                       # number of floating regfile reads
system.switch_cpus_1.fp_regfile_writes        1274186                       # number of floating regfile writes
system.switch_cpus_1.misc_regfile_reads         94472                       # number of misc regfile reads
system.switch_cpus_1.misc_regfile_writes        47313                       # number of misc regfile writes
system.tol3bus.snoop_filter.tot_requests      2928923                       # Total number of requests made to the snoop filter.
system.tol3bus.snoop_filter.hit_single_requests      1462422                       # Number of requests hitting in the snoop filter with a single holder of the requested data.
system.tol3bus.snoop_filter.hit_multi_requests            0                       # Number of requests hitting in the snoop filter with multiple (>1) holders of the requested data.
system.tol3bus.snoop_filter.tot_snoops            937                       # Total number of snoops made to the snoop filter.
system.tol3bus.snoop_filter.hit_single_snoops          937                       # Number of snoops hitting in the snoop filter with a single holder of the requested data.
system.tol3bus.snoop_filter.hit_multi_snoops            0                       # Number of snoops hitting in the snoop filter with multiple (>1) holders of the requested data.
system.tol3bus.pwrStateResidencyTicks::UNDEFINED 18746578037952                       # Cumulative time (in ticks) in various power states
system.tol3bus.trans_dist::ReadResp           1040646                       # Transaction distribution
system.tol3bus.trans_dist::WritebackDirty      1012908                       # Transaction distribution
system.tol3bus.trans_dist::CleanEvict          678696                       # Transaction distribution
system.tol3bus.trans_dist::ReadExReq           425855                       # Transaction distribution
system.tol3bus.trans_dist::ReadExResp          425855                       # Transaction distribution
system.tol3bus.trans_dist::ReadSharedReq      1040646                       # Transaction distribution
system.tol3bus.pkt_count_system.cpu.l2.mem_side::system.l3.cpu_side      4395424                       # Packet count per connected master and slave (bytes)
system.tol3bus.pkt_size_system.cpu.l2.mem_side::system.l3.cpu_side    147066304                       # Cumulative packet size per connected master and slave (bytes)
system.tol3bus.snoops                          229182                       # Total snoops (count)
system.tol3bus.snoopTraffic                  11615872                       # Total snoop traffic (bytes)
system.tol3bus.snoop_fanout::samples          1695683                       # Request fanout histogram
system.tol3bus.snoop_fanout::mean            0.000553                       # Request fanout histogram
system.tol3bus.snoop_fanout::stdev           0.023501                       # Request fanout histogram
system.tol3bus.snoop_fanout::underflows             0      0.00%      0.00% # Request fanout histogram
system.tol3bus.snoop_fanout::0                1694746     99.94%     99.94% # Request fanout histogram
system.tol3bus.snoop_fanout::1                    937      0.06%    100.00% # Request fanout histogram
system.tol3bus.snoop_fanout::overflows              0      0.00%    100.00% # Request fanout histogram
system.tol3bus.snoop_fanout::min_value              0                       # Request fanout histogram
system.tol3bus.snoop_fanout::max_value              1                       # Request fanout histogram
system.tol3bus.snoop_fanout::total            1695683                       # Request fanout histogram
system.tol3bus.reqLayer0.occupancy         1252190889                       # Layer occupancy (ticks)
system.tol3bus.reqLayer0.utilization              0.1                       # Layer utilization (%)
system.tol3bus.respLayer0.occupancy         976689666                       # Layer occupancy (ticks)
system.tol3bus.respLayer0.utilization             0.1                       # Layer utilization (%)

---------- End Simulation Statistics   ----------
