
---------- Begin Simulation Statistics ----------
sim_seconds                                  1.039383                       # Number of seconds simulated
sim_ticks                                1039382543700                       # Number of ticks simulated
final_tick                               176590666665567                       # Number of ticks from beginning of simulation (restored from checkpoints and never reset)
sim_freq                                 1000000000000                       # Frequency of simulated ticks
host_inst_rate                                 586810                       # Simulator instruction rate (inst/s)
host_op_rate                                   586810                       # Simulator op (including micro ops) rate (op/s)
host_tick_rate                              406613605                       # Simulator tick rate (ticks/s)
host_mem_usage                                2388036                       # Number of bytes of host memory used
host_seconds                                  2556.19                       # Real time elapsed on the host
sim_insts                                  1500000008                       # Number of instructions simulated
sim_ops                                    1500000008                       # Number of ops (including micro ops) simulated
system.voltage_domain.voltage                       1                       # Voltage in Volts
system.clk_domain.clock                          1000                       # Clock period in ticks
system.mem_ctrls0.pwrStateResidencyTicks::UNDEFINED 176590666665567                       # Cumulative time (in ticks) in various power states
system.mem_ctrls0.bytes_read::cpu.inst             64                       # Number of bytes read from this memory
system.mem_ctrls0.bytes_read::cpu.data            192                       # Number of bytes read from this memory
system.mem_ctrls0.bytes_read::switch_cpus.inst        48832                       # Number of bytes read from this memory
system.mem_ctrls0.bytes_read::switch_cpus.data      2283264                       # Number of bytes read from this memory
system.mem_ctrls0.bytes_read::switch_cpus_1.inst        16000                       # Number of bytes read from this memory
system.mem_ctrls0.bytes_read::switch_cpus_1.data       572224                       # Number of bytes read from this memory
system.mem_ctrls0.bytes_read::total           2920576                       # Number of bytes read from this memory
system.mem_ctrls0.bytes_inst_read::cpu.inst           64                       # Number of instructions bytes read from this memory
system.mem_ctrls0.bytes_inst_read::switch_cpus.inst        48832                       # Number of instructions bytes read from this memory
system.mem_ctrls0.bytes_inst_read::switch_cpus_1.inst        16000                       # Number of instructions bytes read from this memory
system.mem_ctrls0.bytes_inst_read::total        64896                       # Number of instructions bytes read from this memory
system.mem_ctrls0.bytes_written::writebacks       144960                       # Number of bytes written to this memory
system.mem_ctrls0.bytes_written::total         144960                       # Number of bytes written to this memory
system.mem_ctrls0.num_reads::cpu.inst               1                       # Number of read requests responded to by this memory
system.mem_ctrls0.num_reads::cpu.data               3                       # Number of read requests responded to by this memory
system.mem_ctrls0.num_reads::switch_cpus.inst          763                       # Number of read requests responded to by this memory
system.mem_ctrls0.num_reads::switch_cpus.data        35676                       # Number of read requests responded to by this memory
system.mem_ctrls0.num_reads::switch_cpus_1.inst          250                       # Number of read requests responded to by this memory
system.mem_ctrls0.num_reads::switch_cpus_1.data         8941                       # Number of read requests responded to by this memory
system.mem_ctrls0.num_reads::total              45634                       # Number of read requests responded to by this memory
system.mem_ctrls0.num_writes::writebacks         2265                       # Number of write requests responded to by this memory
system.mem_ctrls0.num_writes::total              2265                       # Number of write requests responded to by this memory
system.mem_ctrls0.bw_read::cpu.inst                62                       # Total read bandwidth from this memory (bytes/s)
system.mem_ctrls0.bw_read::cpu.data               185                       # Total read bandwidth from this memory (bytes/s)
system.mem_ctrls0.bw_read::switch_cpus.inst        46982                       # Total read bandwidth from this memory (bytes/s)
system.mem_ctrls0.bw_read::switch_cpus.data      2196750                       # Total read bandwidth from this memory (bytes/s)
system.mem_ctrls0.bw_read::switch_cpus_1.inst        15394                       # Total read bandwidth from this memory (bytes/s)
system.mem_ctrls0.bw_read::switch_cpus_1.data       550542                       # Total read bandwidth from this memory (bytes/s)
system.mem_ctrls0.bw_read::total              2809914                       # Total read bandwidth from this memory (bytes/s)
system.mem_ctrls0.bw_inst_read::cpu.inst           62                       # Instruction read bandwidth from this memory (bytes/s)
system.mem_ctrls0.bw_inst_read::switch_cpus.inst        46982                       # Instruction read bandwidth from this memory (bytes/s)
system.mem_ctrls0.bw_inst_read::switch_cpus_1.inst        15394                       # Instruction read bandwidth from this memory (bytes/s)
system.mem_ctrls0.bw_inst_read::total           62437                       # Instruction read bandwidth from this memory (bytes/s)
system.mem_ctrls0.bw_write::writebacks         139467                       # Write bandwidth from this memory (bytes/s)
system.mem_ctrls0.bw_write::total              139467                       # Write bandwidth from this memory (bytes/s)
system.mem_ctrls0.bw_total::writebacks         139467                       # Total bandwidth to/from this memory (bytes/s)
system.mem_ctrls0.bw_total::cpu.inst               62                       # Total bandwidth to/from this memory (bytes/s)
system.mem_ctrls0.bw_total::cpu.data              185                       # Total bandwidth to/from this memory (bytes/s)
system.mem_ctrls0.bw_total::switch_cpus.inst        46982                       # Total bandwidth to/from this memory (bytes/s)
system.mem_ctrls0.bw_total::switch_cpus.data      2196750                       # Total bandwidth to/from this memory (bytes/s)
system.mem_ctrls0.bw_total::switch_cpus_1.inst        15394                       # Total bandwidth to/from this memory (bytes/s)
system.mem_ctrls0.bw_total::switch_cpus_1.data       550542                       # Total bandwidth to/from this memory (bytes/s)
system.mem_ctrls0.bw_total::total             2949382                       # Total bandwidth to/from this memory (bytes/s)
system.mem_ctrls0.readReqs                      45634                       # Number of read requests accepted
system.mem_ctrls0.writeReqs                      2265                       # Number of write requests accepted
system.mem_ctrls0.readBursts                    45634                       # Number of DRAM read bursts, including those serviced by the write queue
system.mem_ctrls0.writeBursts                    2265                       # Number of DRAM write bursts, including those merged in the write queue
system.mem_ctrls0.bytesReadDRAM               2867264                       # Total number of bytes read from DRAM
system.mem_ctrls0.bytesReadWrQ                  53312                       # Total number of bytes read from write queue
system.mem_ctrls0.bytesWritten                 142720                       # Total number of bytes written to DRAM
system.mem_ctrls0.bytesReadSys                2920576                       # Total read bytes from the system interface side
system.mem_ctrls0.bytesWrittenSys              144960                       # Total written bytes from the system interface side
system.mem_ctrls0.servicedByWrQ                   833                       # Number of DRAM read bursts serviced by the write queue
system.mem_ctrls0.mergedWrBursts                    4                       # Number of DRAM write bursts merged with an existing one
system.mem_ctrls0.neitherReadNorWriteReqs            0                       # Number of requests that are neither read nor write
system.mem_ctrls0.perBankRdBursts::0             2804                       # Per bank write bursts
system.mem_ctrls0.perBankRdBursts::1             2423                       # Per bank write bursts
system.mem_ctrls0.perBankRdBursts::2             2543                       # Per bank write bursts
system.mem_ctrls0.perBankRdBursts::3             2714                       # Per bank write bursts
system.mem_ctrls0.perBankRdBursts::4             2554                       # Per bank write bursts
system.mem_ctrls0.perBankRdBursts::5             2749                       # Per bank write bursts
system.mem_ctrls0.perBankRdBursts::6             2980                       # Per bank write bursts
system.mem_ctrls0.perBankRdBursts::7             2798                       # Per bank write bursts
system.mem_ctrls0.perBankRdBursts::8             2814                       # Per bank write bursts
system.mem_ctrls0.perBankRdBursts::9             2908                       # Per bank write bursts
system.mem_ctrls0.perBankRdBursts::10            3010                       # Per bank write bursts
system.mem_ctrls0.perBankRdBursts::11            2830                       # Per bank write bursts
system.mem_ctrls0.perBankRdBursts::12            2915                       # Per bank write bursts
system.mem_ctrls0.perBankRdBursts::13            2808                       # Per bank write bursts
system.mem_ctrls0.perBankRdBursts::14            3158                       # Per bank write bursts
system.mem_ctrls0.perBankRdBursts::15            2793                       # Per bank write bursts
system.mem_ctrls0.perBankWrBursts::0              155                       # Per bank write bursts
system.mem_ctrls0.perBankWrBursts::1               51                       # Per bank write bursts
system.mem_ctrls0.perBankWrBursts::2              132                       # Per bank write bursts
system.mem_ctrls0.perBankWrBursts::3               88                       # Per bank write bursts
system.mem_ctrls0.perBankWrBursts::4              137                       # Per bank write bursts
system.mem_ctrls0.perBankWrBursts::5               94                       # Per bank write bursts
system.mem_ctrls0.perBankWrBursts::6              184                       # Per bank write bursts
system.mem_ctrls0.perBankWrBursts::7              118                       # Per bank write bursts
system.mem_ctrls0.perBankWrBursts::8              167                       # Per bank write bursts
system.mem_ctrls0.perBankWrBursts::9               87                       # Per bank write bursts
system.mem_ctrls0.perBankWrBursts::10             130                       # Per bank write bursts
system.mem_ctrls0.perBankWrBursts::11             173                       # Per bank write bursts
system.mem_ctrls0.perBankWrBursts::12             174                       # Per bank write bursts
system.mem_ctrls0.perBankWrBursts::13             115                       # Per bank write bursts
system.mem_ctrls0.perBankWrBursts::14             269                       # Per bank write bursts
system.mem_ctrls0.perBankWrBursts::15             156                       # Per bank write bursts
system.mem_ctrls0.numRdRetry                        0                       # Number of times read queue was full causing retry
system.mem_ctrls0.numWrRetry                        0                       # Number of times write queue was full causing retry
system.mem_ctrls0.totGap                 1039363736193                       # Total gap between requests
system.mem_ctrls0.readPktSize::0                    0                       # Read request sizes (log2)
system.mem_ctrls0.readPktSize::1                    0                       # Read request sizes (log2)
system.mem_ctrls0.readPktSize::2                    0                       # Read request sizes (log2)
system.mem_ctrls0.readPktSize::3                    0                       # Read request sizes (log2)
system.mem_ctrls0.readPktSize::4                    0                       # Read request sizes (log2)
system.mem_ctrls0.readPktSize::5                    0                       # Read request sizes (log2)
system.mem_ctrls0.readPktSize::6                45634                       # Read request sizes (log2)
system.mem_ctrls0.writePktSize::0                   0                       # Write request sizes (log2)
system.mem_ctrls0.writePktSize::1                   0                       # Write request sizes (log2)
system.mem_ctrls0.writePktSize::2                   0                       # Write request sizes (log2)
system.mem_ctrls0.writePktSize::3                   0                       # Write request sizes (log2)
system.mem_ctrls0.writePktSize::4                   0                       # Write request sizes (log2)
system.mem_ctrls0.writePktSize::5                   0                       # Write request sizes (log2)
system.mem_ctrls0.writePktSize::6                2265                       # Write request sizes (log2)
system.mem_ctrls0.rdQLenPdf::0                  44477                       # What read queue length does an incoming req see
system.mem_ctrls0.rdQLenPdf::1                    314                       # What read queue length does an incoming req see
system.mem_ctrls0.rdQLenPdf::2                      9                       # What read queue length does an incoming req see
system.mem_ctrls0.rdQLenPdf::3                      1                       # What read queue length does an incoming req see
system.mem_ctrls0.rdQLenPdf::4                      0                       # What read queue length does an incoming req see
system.mem_ctrls0.rdQLenPdf::5                      0                       # What read queue length does an incoming req see
system.mem_ctrls0.rdQLenPdf::6                      0                       # What read queue length does an incoming req see
system.mem_ctrls0.rdQLenPdf::7                      0                       # What read queue length does an incoming req see
system.mem_ctrls0.rdQLenPdf::8                      0                       # What read queue length does an incoming req see
system.mem_ctrls0.rdQLenPdf::9                      0                       # What read queue length does an incoming req see
system.mem_ctrls0.rdQLenPdf::10                     0                       # What read queue length does an incoming req see
system.mem_ctrls0.rdQLenPdf::11                     0                       # What read queue length does an incoming req see
system.mem_ctrls0.rdQLenPdf::12                     0                       # What read queue length does an incoming req see
system.mem_ctrls0.rdQLenPdf::13                     0                       # What read queue length does an incoming req see
system.mem_ctrls0.rdQLenPdf::14                     0                       # What read queue length does an incoming req see
system.mem_ctrls0.rdQLenPdf::15                     0                       # What read queue length does an incoming req see
system.mem_ctrls0.rdQLenPdf::16                     0                       # What read queue length does an incoming req see
system.mem_ctrls0.rdQLenPdf::17                     0                       # What read queue length does an incoming req see
system.mem_ctrls0.rdQLenPdf::18                     0                       # What read queue length does an incoming req see
system.mem_ctrls0.rdQLenPdf::19                     0                       # What read queue length does an incoming req see
system.mem_ctrls0.rdQLenPdf::20                     0                       # What read queue length does an incoming req see
system.mem_ctrls0.rdQLenPdf::21                     0                       # What read queue length does an incoming req see
system.mem_ctrls0.rdQLenPdf::22                     0                       # What read queue length does an incoming req see
system.mem_ctrls0.rdQLenPdf::23                     0                       # What read queue length does an incoming req see
system.mem_ctrls0.rdQLenPdf::24                     0                       # What read queue length does an incoming req see
system.mem_ctrls0.rdQLenPdf::25                     0                       # What read queue length does an incoming req see
system.mem_ctrls0.rdQLenPdf::26                     0                       # What read queue length does an incoming req see
system.mem_ctrls0.rdQLenPdf::27                     0                       # What read queue length does an incoming req see
system.mem_ctrls0.rdQLenPdf::28                     0                       # What read queue length does an incoming req see
system.mem_ctrls0.rdQLenPdf::29                     0                       # What read queue length does an incoming req see
system.mem_ctrls0.rdQLenPdf::30                     0                       # What read queue length does an incoming req see
system.mem_ctrls0.rdQLenPdf::31                     0                       # What read queue length does an incoming req see
system.mem_ctrls0.wrQLenPdf::0                      2                       # What write queue length does an incoming req see
system.mem_ctrls0.wrQLenPdf::1                      2                       # What write queue length does an incoming req see
system.mem_ctrls0.wrQLenPdf::2                      2                       # What write queue length does an incoming req see
system.mem_ctrls0.wrQLenPdf::3                      2                       # What write queue length does an incoming req see
system.mem_ctrls0.wrQLenPdf::4                      2                       # What write queue length does an incoming req see
system.mem_ctrls0.wrQLenPdf::5                      2                       # What write queue length does an incoming req see
system.mem_ctrls0.wrQLenPdf::6                      2                       # What write queue length does an incoming req see
system.mem_ctrls0.wrQLenPdf::7                      2                       # What write queue length does an incoming req see
system.mem_ctrls0.wrQLenPdf::8                      2                       # What write queue length does an incoming req see
system.mem_ctrls0.wrQLenPdf::9                      2                       # What write queue length does an incoming req see
system.mem_ctrls0.wrQLenPdf::10                     2                       # What write queue length does an incoming req see
system.mem_ctrls0.wrQLenPdf::11                     2                       # What write queue length does an incoming req see
system.mem_ctrls0.wrQLenPdf::12                     2                       # What write queue length does an incoming req see
system.mem_ctrls0.wrQLenPdf::13                     2                       # What write queue length does an incoming req see
system.mem_ctrls0.wrQLenPdf::14                     2                       # What write queue length does an incoming req see
system.mem_ctrls0.wrQLenPdf::15                   106                       # What write queue length does an incoming req see
system.mem_ctrls0.wrQLenPdf::16                   109                       # What write queue length does an incoming req see
system.mem_ctrls0.wrQLenPdf::17                   126                       # What write queue length does an incoming req see
system.mem_ctrls0.wrQLenPdf::18                   127                       # What write queue length does an incoming req see
system.mem_ctrls0.wrQLenPdf::19                   126                       # What write queue length does an incoming req see
system.mem_ctrls0.wrQLenPdf::20                   127                       # What write queue length does an incoming req see
system.mem_ctrls0.wrQLenPdf::21                   126                       # What write queue length does an incoming req see
system.mem_ctrls0.wrQLenPdf::22                   126                       # What write queue length does an incoming req see
system.mem_ctrls0.wrQLenPdf::23                   126                       # What write queue length does an incoming req see
system.mem_ctrls0.wrQLenPdf::24                   126                       # What write queue length does an incoming req see
system.mem_ctrls0.wrQLenPdf::25                   126                       # What write queue length does an incoming req see
system.mem_ctrls0.wrQLenPdf::26                   126                       # What write queue length does an incoming req see
system.mem_ctrls0.wrQLenPdf::27                   126                       # What write queue length does an incoming req see
system.mem_ctrls0.wrQLenPdf::28                   127                       # What write queue length does an incoming req see
system.mem_ctrls0.wrQLenPdf::29                   125                       # What write queue length does an incoming req see
system.mem_ctrls0.wrQLenPdf::30                   126                       # What write queue length does an incoming req see
system.mem_ctrls0.wrQLenPdf::31                   124                       # What write queue length does an incoming req see
system.mem_ctrls0.wrQLenPdf::32                   124                       # What write queue length does an incoming req see
system.mem_ctrls0.wrQLenPdf::33                     2                       # What write queue length does an incoming req see
system.mem_ctrls0.wrQLenPdf::34                     0                       # What write queue length does an incoming req see
system.mem_ctrls0.wrQLenPdf::35                     0                       # What write queue length does an incoming req see
system.mem_ctrls0.wrQLenPdf::36                     0                       # What write queue length does an incoming req see
system.mem_ctrls0.wrQLenPdf::37                     0                       # What write queue length does an incoming req see
system.mem_ctrls0.wrQLenPdf::38                     0                       # What write queue length does an incoming req see
system.mem_ctrls0.wrQLenPdf::39                     0                       # What write queue length does an incoming req see
system.mem_ctrls0.wrQLenPdf::40                     0                       # What write queue length does an incoming req see
system.mem_ctrls0.wrQLenPdf::41                     0                       # What write queue length does an incoming req see
system.mem_ctrls0.wrQLenPdf::42                     0                       # What write queue length does an incoming req see
system.mem_ctrls0.wrQLenPdf::43                     0                       # What write queue length does an incoming req see
system.mem_ctrls0.wrQLenPdf::44                     0                       # What write queue length does an incoming req see
system.mem_ctrls0.wrQLenPdf::45                     0                       # What write queue length does an incoming req see
system.mem_ctrls0.wrQLenPdf::46                     0                       # What write queue length does an incoming req see
system.mem_ctrls0.wrQLenPdf::47                     0                       # What write queue length does an incoming req see
system.mem_ctrls0.wrQLenPdf::48                     0                       # What write queue length does an incoming req see
system.mem_ctrls0.wrQLenPdf::49                     0                       # What write queue length does an incoming req see
system.mem_ctrls0.wrQLenPdf::50                     0                       # What write queue length does an incoming req see
system.mem_ctrls0.wrQLenPdf::51                     0                       # What write queue length does an incoming req see
system.mem_ctrls0.wrQLenPdf::52                     0                       # What write queue length does an incoming req see
system.mem_ctrls0.wrQLenPdf::53                     0                       # What write queue length does an incoming req see
system.mem_ctrls0.wrQLenPdf::54                     0                       # What write queue length does an incoming req see
system.mem_ctrls0.wrQLenPdf::55                     0                       # What write queue length does an incoming req see
system.mem_ctrls0.wrQLenPdf::56                     0                       # What write queue length does an incoming req see
system.mem_ctrls0.wrQLenPdf::57                     0                       # What write queue length does an incoming req see
system.mem_ctrls0.wrQLenPdf::58                     0                       # What write queue length does an incoming req see
system.mem_ctrls0.wrQLenPdf::59                     0                       # What write queue length does an incoming req see
system.mem_ctrls0.wrQLenPdf::60                     0                       # What write queue length does an incoming req see
system.mem_ctrls0.wrQLenPdf::61                     0                       # What write queue length does an incoming req see
system.mem_ctrls0.wrQLenPdf::62                     0                       # What write queue length does an incoming req see
system.mem_ctrls0.wrQLenPdf::63                     0                       # What write queue length does an incoming req see
system.mem_ctrls0.bytesPerActivate::samples        17580                       # Bytes accessed per row activation
system.mem_ctrls0.bytesPerActivate::mean   171.216382                       # Bytes accessed per row activation
system.mem_ctrls0.bytesPerActivate::gmean   120.869992                       # Bytes accessed per row activation
system.mem_ctrls0.bytesPerActivate::stdev   190.335068                       # Bytes accessed per row activation
system.mem_ctrls0.bytesPerActivate::0-127         8552     48.65%     48.65% # Bytes accessed per row activation
system.mem_ctrls0.bytesPerActivate::128-255         5666     32.23%     80.88% # Bytes accessed per row activation
system.mem_ctrls0.bytesPerActivate::256-383         1352      7.69%     88.57% # Bytes accessed per row activation
system.mem_ctrls0.bytesPerActivate::384-511         1038      5.90%     94.47% # Bytes accessed per row activation
system.mem_ctrls0.bytesPerActivate::512-639          201      1.14%     95.61% # Bytes accessed per row activation
system.mem_ctrls0.bytesPerActivate::640-767          128      0.73%     96.34% # Bytes accessed per row activation
system.mem_ctrls0.bytesPerActivate::768-895          103      0.59%     96.93% # Bytes accessed per row activation
system.mem_ctrls0.bytesPerActivate::896-1023          164      0.93%     97.86% # Bytes accessed per row activation
system.mem_ctrls0.bytesPerActivate::1024-1151          376      2.14%    100.00% # Bytes accessed per row activation
system.mem_ctrls0.bytesPerActivate::total        17580                       # Bytes accessed per row activation
system.mem_ctrls0.rdPerTurnAround::samples          125                       # Reads before turning the bus around for writes
system.mem_ctrls0.rdPerTurnAround::mean    358.160000                       # Reads before turning the bus around for writes
system.mem_ctrls0.rdPerTurnAround::gmean    79.656338                       # Reads before turning the bus around for writes
system.mem_ctrls0.rdPerTurnAround::stdev  2594.961860                       # Reads before turning the bus around for writes
system.mem_ctrls0.rdPerTurnAround::0-1023          124     99.20%     99.20% # Reads before turning the bus around for writes
system.mem_ctrls0.rdPerTurnAround::28672-29695            1      0.80%    100.00% # Reads before turning the bus around for writes
system.mem_ctrls0.rdPerTurnAround::total          125                       # Reads before turning the bus around for writes
system.mem_ctrls0.wrPerTurnAround::samples          125                       # Writes before turning the bus around for reads
system.mem_ctrls0.wrPerTurnAround::mean     17.840000                       # Writes before turning the bus around for reads
system.mem_ctrls0.wrPerTurnAround::gmean    17.803887                       # Writes before turning the bus around for reads
system.mem_ctrls0.wrPerTurnAround::stdev     1.246932                       # Writes before turning the bus around for reads
system.mem_ctrls0.wrPerTurnAround::16              17     13.60%     13.60% # Writes before turning the bus around for reads
system.mem_ctrls0.wrPerTurnAround::17               2      1.60%     15.20% # Writes before turning the bus around for reads
system.mem_ctrls0.wrPerTurnAround::18             100     80.00%     95.20% # Writes before turning the bus around for reads
system.mem_ctrls0.wrPerTurnAround::19               5      4.00%     99.20% # Writes before turning the bus around for reads
system.mem_ctrls0.wrPerTurnAround::29               1      0.80%    100.00% # Writes before turning the bus around for reads
system.mem_ctrls0.wrPerTurnAround::total          125                       # Writes before turning the bus around for reads
system.mem_ctrls0.totQLat                  3436145743                       # Total ticks spent queuing
system.mem_ctrls0.totMemAccLat             4276164493                       # Total ticks spent from burst creation until serviced by the DRAM
system.mem_ctrls0.totBusLat                 224005000                       # Total ticks spent in databus transfers
system.mem_ctrls0.avgQLat                    76697.97                       # Average queueing delay per DRAM burst
system.mem_ctrls0.avgBusLat                   5000.00                       # Average bus latency per DRAM burst
system.mem_ctrls0.avgMemAccLat               95447.97                       # Average memory access latency per DRAM burst
system.mem_ctrls0.avgRdBW                        2.76                       # Average DRAM read bandwidth in MiByte/s
system.mem_ctrls0.avgWrBW                        0.14                       # Average achieved write bandwidth in MiByte/s
system.mem_ctrls0.avgRdBWSys                     2.81                       # Average system read bandwidth in MiByte/s
system.mem_ctrls0.avgWrBWSys                     0.14                       # Average system write bandwidth in MiByte/s
system.mem_ctrls0.peakBW                     12800.00                       # Theoretical peak bandwidth in MiByte/s
system.mem_ctrls0.busUtil                        0.02                       # Data bus utilization in percentage
system.mem_ctrls0.busUtilRead                    0.02                       # Data bus utilization in percentage for reads
system.mem_ctrls0.busUtilWrite                   0.00                       # Data bus utilization in percentage for writes
system.mem_ctrls0.avgRdQLen                      1.00                       # Average read queue length when enqueuing
system.mem_ctrls0.avgWrQLen                     13.49                       # Average write queue length when enqueuing
system.mem_ctrls0.readRowHits                   29066                       # Number of row buffer hits during reads
system.mem_ctrls0.writeRowHits                    385                       # Number of row buffer hits during writes
system.mem_ctrls0.readRowHitRate                64.88                       # Row buffer hit rate for reads
system.mem_ctrls0.writeRowHitRate               17.03                       # Row buffer hit rate for writes
system.mem_ctrls0.avgGap                  21699069.63                       # Average gap between requests
system.mem_ctrls0.pageHitRate                   62.58                       # Row buffer hit rate, read and write combined
system.mem_ctrls0_0.actEnergy                56977200                       # Energy for activate commands per rank (pJ)
system.mem_ctrls0_0.preEnergy                30284100                       # Energy for precharge commands per rank (pJ)
system.mem_ctrls0_0.readEnergy              153974100                       # Energy for read commands per rank (pJ)
system.mem_ctrls0_0.writeEnergy               5005980                       # Energy for write commands per rank (pJ)
system.mem_ctrls0_0.refreshEnergy        5541594240.000001                       # Energy for refresh commands per rank (pJ)
system.mem_ctrls0_0.actBackEnergy          1540205550                       # Energy for active background per rank (pJ)
system.mem_ctrls0_0.preBackEnergy           335619840                       # Energy for precharge background per rank (pJ)
system.mem_ctrls0_0.actPowerDownEnergy    12109382670                       # Energy for active power-down per rank (pJ)
system.mem_ctrls0_0.prePowerDownEnergy     8218226400                       # Energy for precharge power-down per rank (pJ)
system.mem_ctrls0_0.selfRefreshEnergy    238292587980                       # Energy for self refresh per rank (pJ)
system.mem_ctrls0_0.totalEnergy          266285785440                       # Total energy per rank (pJ)
system.mem_ctrls0_0.averagePower           256.196130                       # Core power per rank (mW)
system.mem_ctrls0_0.totalIdleTime        1034971704484                       # Total Idle time Per DRAM Rank
system.mem_ctrls0_0.memoryStateTime::IDLE    681181318                       # Time in different power states
system.mem_ctrls0_0.memoryStateTime::REF   2359196000                       # Time in different power states
system.mem_ctrls0_0.memoryStateTime::SREF 987169317950                       # Time in different power states
system.mem_ctrls0_0.memoryStateTime::PRE_PDN  21401622616                       # Time in different power states
system.mem_ctrls0_0.memoryStateTime::ACT   1215630176                       # Time in different power states
system.mem_ctrls0_0.memoryStateTime::ACT_PDN  26555595640                       # Time in different power states
system.mem_ctrls0_1.actEnergy                68544000                       # Energy for activate commands per rank (pJ)
system.mem_ctrls0_1.preEnergy                36432000                       # Energy for precharge commands per rank (pJ)
system.mem_ctrls0_1.readEnergy              165905040                       # Energy for read commands per rank (pJ)
system.mem_ctrls0_1.writeEnergy               6634620                       # Energy for write commands per rank (pJ)
system.mem_ctrls0_1.refreshEnergy        6784396320.000002                       # Energy for refresh commands per rank (pJ)
system.mem_ctrls0_1.actBackEnergy          1778620020                       # Energy for active background per rank (pJ)
system.mem_ctrls0_1.preBackEnergy           410425920                       # Energy for precharge background per rank (pJ)
system.mem_ctrls0_1.actPowerDownEnergy    14753887980                       # Energy for active power-down per rank (pJ)
system.mem_ctrls0_1.prePowerDownEnergy    10352616000                       # Energy for precharge power-down per rank (pJ)
system.mem_ctrls0_1.selfRefreshEnergy    235673860305                       # Energy for self refresh per rank (pJ)
system.mem_ctrls0_1.totalEnergy          270033193725                       # Total energy per rank (pJ)
system.mem_ctrls0_1.averagePower           259.801548                       # Core power per rank (mW)
system.mem_ctrls0_1.totalIdleTime        1034406636212                       # Total Idle time Per DRAM Rank
system.mem_ctrls0_1.memoryStateTime::IDLE    830850260                       # Time in different power states
system.mem_ctrls0_1.memoryStateTime::REF   2888102000                       # Time in different power states
system.mem_ctrls0_1.memoryStateTime::SREF 975094146950                       # Time in different power states
system.mem_ctrls0_1.memoryStateTime::PRE_PDN  26959968062                       # Time in different power states
system.mem_ctrls0_1.memoryStateTime::ACT   1254364779                       # Time in different power states
system.mem_ctrls0_1.memoryStateTime::ACT_PDN  32355111649                       # Time in different power states
system.mem_ctrls1.pwrStateResidencyTicks::UNDEFINED 176590666665567                       # Cumulative time (in ticks) in various power states
system.mem_ctrls1.bytes_read::cpu.inst            192                       # Number of bytes read from this memory
system.mem_ctrls1.bytes_read::cpu.data            128                       # Number of bytes read from this memory
system.mem_ctrls1.bytes_read::switch_cpus.inst        48896                       # Number of bytes read from this memory
system.mem_ctrls1.bytes_read::switch_cpus.data      2280192                       # Number of bytes read from this memory
system.mem_ctrls1.bytes_read::switch_cpus_1.inst        18368                       # Number of bytes read from this memory
system.mem_ctrls1.bytes_read::switch_cpus_1.data       574784                       # Number of bytes read from this memory
system.mem_ctrls1.bytes_read::total           2922560                       # Number of bytes read from this memory
system.mem_ctrls1.bytes_inst_read::cpu.inst          192                       # Number of instructions bytes read from this memory
system.mem_ctrls1.bytes_inst_read::switch_cpus.inst        48896                       # Number of instructions bytes read from this memory
system.mem_ctrls1.bytes_inst_read::switch_cpus_1.inst        18368                       # Number of instructions bytes read from this memory
system.mem_ctrls1.bytes_inst_read::total        67456                       # Number of instructions bytes read from this memory
system.mem_ctrls1.bytes_written::writebacks       145024                       # Number of bytes written to this memory
system.mem_ctrls1.bytes_written::total         145024                       # Number of bytes written to this memory
system.mem_ctrls1.num_reads::cpu.inst               3                       # Number of read requests responded to by this memory
system.mem_ctrls1.num_reads::cpu.data               2                       # Number of read requests responded to by this memory
system.mem_ctrls1.num_reads::switch_cpus.inst          764                       # Number of read requests responded to by this memory
system.mem_ctrls1.num_reads::switch_cpus.data        35628                       # Number of read requests responded to by this memory
system.mem_ctrls1.num_reads::switch_cpus_1.inst          287                       # Number of read requests responded to by this memory
system.mem_ctrls1.num_reads::switch_cpus_1.data         8981                       # Number of read requests responded to by this memory
system.mem_ctrls1.num_reads::total              45665                       # Number of read requests responded to by this memory
system.mem_ctrls1.num_writes::writebacks         2266                       # Number of write requests responded to by this memory
system.mem_ctrls1.num_writes::total              2266                       # Number of write requests responded to by this memory
system.mem_ctrls1.bw_read::cpu.inst               185                       # Total read bandwidth from this memory (bytes/s)
system.mem_ctrls1.bw_read::cpu.data               123                       # Total read bandwidth from this memory (bytes/s)
system.mem_ctrls1.bw_read::switch_cpus.inst        47043                       # Total read bandwidth from this memory (bytes/s)
system.mem_ctrls1.bw_read::switch_cpus.data      2193795                       # Total read bandwidth from this memory (bytes/s)
system.mem_ctrls1.bw_read::switch_cpus_1.inst        17672                       # Total read bandwidth from this memory (bytes/s)
system.mem_ctrls1.bw_read::switch_cpus_1.data       553005                       # Total read bandwidth from this memory (bytes/s)
system.mem_ctrls1.bw_read::total              2811823                       # Total read bandwidth from this memory (bytes/s)
system.mem_ctrls1.bw_inst_read::cpu.inst          185                       # Instruction read bandwidth from this memory (bytes/s)
system.mem_ctrls1.bw_inst_read::switch_cpus.inst        47043                       # Instruction read bandwidth from this memory (bytes/s)
system.mem_ctrls1.bw_inst_read::switch_cpus_1.inst        17672                       # Instruction read bandwidth from this memory (bytes/s)
system.mem_ctrls1.bw_inst_read::total           64900                       # Instruction read bandwidth from this memory (bytes/s)
system.mem_ctrls1.bw_write::writebacks         139529                       # Write bandwidth from this memory (bytes/s)
system.mem_ctrls1.bw_write::total              139529                       # Write bandwidth from this memory (bytes/s)
system.mem_ctrls1.bw_total::writebacks         139529                       # Total bandwidth to/from this memory (bytes/s)
system.mem_ctrls1.bw_total::cpu.inst              185                       # Total bandwidth to/from this memory (bytes/s)
system.mem_ctrls1.bw_total::cpu.data              123                       # Total bandwidth to/from this memory (bytes/s)
system.mem_ctrls1.bw_total::switch_cpus.inst        47043                       # Total bandwidth to/from this memory (bytes/s)
system.mem_ctrls1.bw_total::switch_cpus.data      2193795                       # Total bandwidth to/from this memory (bytes/s)
system.mem_ctrls1.bw_total::switch_cpus_1.inst        17672                       # Total bandwidth to/from this memory (bytes/s)
system.mem_ctrls1.bw_total::switch_cpus_1.data       553005                       # Total bandwidth to/from this memory (bytes/s)
system.mem_ctrls1.bw_total::total             2951352                       # Total bandwidth to/from this memory (bytes/s)
system.mem_ctrls1.readReqs                      45665                       # Number of read requests accepted
system.mem_ctrls1.writeReqs                      2266                       # Number of write requests accepted
system.mem_ctrls1.readBursts                    45665                       # Number of DRAM read bursts, including those serviced by the write queue
system.mem_ctrls1.writeBursts                    2266                       # Number of DRAM write bursts, including those merged in the write queue
system.mem_ctrls1.bytesReadDRAM               2870400                       # Total number of bytes read from DRAM
system.mem_ctrls1.bytesReadWrQ                  52160                       # Total number of bytes read from write queue
system.mem_ctrls1.bytesWritten                 143360                       # Total number of bytes written to DRAM
system.mem_ctrls1.bytesReadSys                2922560                       # Total read bytes from the system interface side
system.mem_ctrls1.bytesWrittenSys              145024                       # Total written bytes from the system interface side
system.mem_ctrls1.servicedByWrQ                   815                       # Number of DRAM read bursts serviced by the write queue
system.mem_ctrls1.mergedWrBursts                    2                       # Number of DRAM write bursts merged with an existing one
system.mem_ctrls1.neitherReadNorWriteReqs            0                       # Number of requests that are neither read nor write
system.mem_ctrls1.perBankRdBursts::0             2782                       # Per bank write bursts
system.mem_ctrls1.perBankRdBursts::1             2449                       # Per bank write bursts
system.mem_ctrls1.perBankRdBursts::2             2553                       # Per bank write bursts
system.mem_ctrls1.perBankRdBursts::3             2727                       # Per bank write bursts
system.mem_ctrls1.perBankRdBursts::4             2572                       # Per bank write bursts
system.mem_ctrls1.perBankRdBursts::5             2715                       # Per bank write bursts
system.mem_ctrls1.perBankRdBursts::6             2994                       # Per bank write bursts
system.mem_ctrls1.perBankRdBursts::7             2802                       # Per bank write bursts
system.mem_ctrls1.perBankRdBursts::8             2830                       # Per bank write bursts
system.mem_ctrls1.perBankRdBursts::9             2901                       # Per bank write bursts
system.mem_ctrls1.perBankRdBursts::10            3009                       # Per bank write bursts
system.mem_ctrls1.perBankRdBursts::11            2812                       # Per bank write bursts
system.mem_ctrls1.perBankRdBursts::12            2903                       # Per bank write bursts
system.mem_ctrls1.perBankRdBursts::13            2820                       # Per bank write bursts
system.mem_ctrls1.perBankRdBursts::14            3171                       # Per bank write bursts
system.mem_ctrls1.perBankRdBursts::15            2810                       # Per bank write bursts
system.mem_ctrls1.perBankWrBursts::0              128                       # Per bank write bursts
system.mem_ctrls1.perBankWrBursts::1               61                       # Per bank write bursts
system.mem_ctrls1.perBankWrBursts::2               98                       # Per bank write bursts
system.mem_ctrls1.perBankWrBursts::3               83                       # Per bank write bursts
system.mem_ctrls1.perBankWrBursts::4              129                       # Per bank write bursts
system.mem_ctrls1.perBankWrBursts::5               92                       # Per bank write bursts
system.mem_ctrls1.perBankWrBursts::6              199                       # Per bank write bursts
system.mem_ctrls1.perBankWrBursts::7              135                       # Per bank write bursts
system.mem_ctrls1.perBankWrBursts::8              172                       # Per bank write bursts
system.mem_ctrls1.perBankWrBursts::9               77                       # Per bank write bursts
system.mem_ctrls1.perBankWrBursts::10             139                       # Per bank write bursts
system.mem_ctrls1.perBankWrBursts::11             180                       # Per bank write bursts
system.mem_ctrls1.perBankWrBursts::12             166                       # Per bank write bursts
system.mem_ctrls1.perBankWrBursts::13             133                       # Per bank write bursts
system.mem_ctrls1.perBankWrBursts::14             307                       # Per bank write bursts
system.mem_ctrls1.perBankWrBursts::15             141                       # Per bank write bursts
system.mem_ctrls1.numRdRetry                        0                       # Number of times read queue was full causing retry
system.mem_ctrls1.numWrRetry                        0                       # Number of times write queue was full causing retry
system.mem_ctrls1.totGap                 1039373362890                       # Total gap between requests
system.mem_ctrls1.readPktSize::0                    0                       # Read request sizes (log2)
system.mem_ctrls1.readPktSize::1                    0                       # Read request sizes (log2)
system.mem_ctrls1.readPktSize::2                    0                       # Read request sizes (log2)
system.mem_ctrls1.readPktSize::3                    0                       # Read request sizes (log2)
system.mem_ctrls1.readPktSize::4                    0                       # Read request sizes (log2)
system.mem_ctrls1.readPktSize::5                    0                       # Read request sizes (log2)
system.mem_ctrls1.readPktSize::6                45665                       # Read request sizes (log2)
system.mem_ctrls1.writePktSize::0                   0                       # Write request sizes (log2)
system.mem_ctrls1.writePktSize::1                   0                       # Write request sizes (log2)
system.mem_ctrls1.writePktSize::2                   0                       # Write request sizes (log2)
system.mem_ctrls1.writePktSize::3                   0                       # Write request sizes (log2)
system.mem_ctrls1.writePktSize::4                   0                       # Write request sizes (log2)
system.mem_ctrls1.writePktSize::5                   0                       # Write request sizes (log2)
system.mem_ctrls1.writePktSize::6                2266                       # Write request sizes (log2)
system.mem_ctrls1.rdQLenPdf::0                  44500                       # What read queue length does an incoming req see
system.mem_ctrls1.rdQLenPdf::1                    342                       # What read queue length does an incoming req see
system.mem_ctrls1.rdQLenPdf::2                      7                       # What read queue length does an incoming req see
system.mem_ctrls1.rdQLenPdf::3                      1                       # What read queue length does an incoming req see
system.mem_ctrls1.rdQLenPdf::4                      0                       # What read queue length does an incoming req see
system.mem_ctrls1.rdQLenPdf::5                      0                       # What read queue length does an incoming req see
system.mem_ctrls1.rdQLenPdf::6                      0                       # What read queue length does an incoming req see
system.mem_ctrls1.rdQLenPdf::7                      0                       # What read queue length does an incoming req see
system.mem_ctrls1.rdQLenPdf::8                      0                       # What read queue length does an incoming req see
system.mem_ctrls1.rdQLenPdf::9                      0                       # What read queue length does an incoming req see
system.mem_ctrls1.rdQLenPdf::10                     0                       # What read queue length does an incoming req see
system.mem_ctrls1.rdQLenPdf::11                     0                       # What read queue length does an incoming req see
system.mem_ctrls1.rdQLenPdf::12                     0                       # What read queue length does an incoming req see
system.mem_ctrls1.rdQLenPdf::13                     0                       # What read queue length does an incoming req see
system.mem_ctrls1.rdQLenPdf::14                     0                       # What read queue length does an incoming req see
system.mem_ctrls1.rdQLenPdf::15                     0                       # What read queue length does an incoming req see
system.mem_ctrls1.rdQLenPdf::16                     0                       # What read queue length does an incoming req see
system.mem_ctrls1.rdQLenPdf::17                     0                       # What read queue length does an incoming req see
system.mem_ctrls1.rdQLenPdf::18                     0                       # What read queue length does an incoming req see
system.mem_ctrls1.rdQLenPdf::19                     0                       # What read queue length does an incoming req see
system.mem_ctrls1.rdQLenPdf::20                     0                       # What read queue length does an incoming req see
system.mem_ctrls1.rdQLenPdf::21                     0                       # What read queue length does an incoming req see
system.mem_ctrls1.rdQLenPdf::22                     0                       # What read queue length does an incoming req see
system.mem_ctrls1.rdQLenPdf::23                     0                       # What read queue length does an incoming req see
system.mem_ctrls1.rdQLenPdf::24                     0                       # What read queue length does an incoming req see
system.mem_ctrls1.rdQLenPdf::25                     0                       # What read queue length does an incoming req see
system.mem_ctrls1.rdQLenPdf::26                     0                       # What read queue length does an incoming req see
system.mem_ctrls1.rdQLenPdf::27                     0                       # What read queue length does an incoming req see
system.mem_ctrls1.rdQLenPdf::28                     0                       # What read queue length does an incoming req see
system.mem_ctrls1.rdQLenPdf::29                     0                       # What read queue length does an incoming req see
system.mem_ctrls1.rdQLenPdf::30                     0                       # What read queue length does an incoming req see
system.mem_ctrls1.rdQLenPdf::31                     0                       # What read queue length does an incoming req see
system.mem_ctrls1.wrQLenPdf::0                      2                       # What write queue length does an incoming req see
system.mem_ctrls1.wrQLenPdf::1                      2                       # What write queue length does an incoming req see
system.mem_ctrls1.wrQLenPdf::2                      2                       # What write queue length does an incoming req see
system.mem_ctrls1.wrQLenPdf::3                      2                       # What write queue length does an incoming req see
system.mem_ctrls1.wrQLenPdf::4                      2                       # What write queue length does an incoming req see
system.mem_ctrls1.wrQLenPdf::5                      2                       # What write queue length does an incoming req see
system.mem_ctrls1.wrQLenPdf::6                      2                       # What write queue length does an incoming req see
system.mem_ctrls1.wrQLenPdf::7                      2                       # What write queue length does an incoming req see
system.mem_ctrls1.wrQLenPdf::8                      2                       # What write queue length does an incoming req see
system.mem_ctrls1.wrQLenPdf::9                      2                       # What write queue length does an incoming req see
system.mem_ctrls1.wrQLenPdf::10                     2                       # What write queue length does an incoming req see
system.mem_ctrls1.wrQLenPdf::11                     2                       # What write queue length does an incoming req see
system.mem_ctrls1.wrQLenPdf::12                     2                       # What write queue length does an incoming req see
system.mem_ctrls1.wrQLenPdf::13                     2                       # What write queue length does an incoming req see
system.mem_ctrls1.wrQLenPdf::14                     2                       # What write queue length does an incoming req see
system.mem_ctrls1.wrQLenPdf::15                   115                       # What write queue length does an incoming req see
system.mem_ctrls1.wrQLenPdf::16                   115                       # What write queue length does an incoming req see
system.mem_ctrls1.wrQLenPdf::17                   125                       # What write queue length does an incoming req see
system.mem_ctrls1.wrQLenPdf::18                   126                       # What write queue length does an incoming req see
system.mem_ctrls1.wrQLenPdf::19                   126                       # What write queue length does an incoming req see
system.mem_ctrls1.wrQLenPdf::20                   126                       # What write queue length does an incoming req see
system.mem_ctrls1.wrQLenPdf::21                   126                       # What write queue length does an incoming req see
system.mem_ctrls1.wrQLenPdf::22                   126                       # What write queue length does an incoming req see
system.mem_ctrls1.wrQLenPdf::23                   126                       # What write queue length does an incoming req see
system.mem_ctrls1.wrQLenPdf::24                   124                       # What write queue length does an incoming req see
system.mem_ctrls1.wrQLenPdf::25                   124                       # What write queue length does an incoming req see
system.mem_ctrls1.wrQLenPdf::26                   124                       # What write queue length does an incoming req see
system.mem_ctrls1.wrQLenPdf::27                   124                       # What write queue length does an incoming req see
system.mem_ctrls1.wrQLenPdf::28                   125                       # What write queue length does an incoming req see
system.mem_ctrls1.wrQLenPdf::29                   124                       # What write queue length does an incoming req see
system.mem_ctrls1.wrQLenPdf::30                   124                       # What write queue length does an incoming req see
system.mem_ctrls1.wrQLenPdf::31                   124                       # What write queue length does an incoming req see
system.mem_ctrls1.wrQLenPdf::32                   124                       # What write queue length does an incoming req see
system.mem_ctrls1.wrQLenPdf::33                     5                       # What write queue length does an incoming req see
system.mem_ctrls1.wrQLenPdf::34                     1                       # What write queue length does an incoming req see
system.mem_ctrls1.wrQLenPdf::35                     0                       # What write queue length does an incoming req see
system.mem_ctrls1.wrQLenPdf::36                     0                       # What write queue length does an incoming req see
system.mem_ctrls1.wrQLenPdf::37                     0                       # What write queue length does an incoming req see
system.mem_ctrls1.wrQLenPdf::38                     0                       # What write queue length does an incoming req see
system.mem_ctrls1.wrQLenPdf::39                     0                       # What write queue length does an incoming req see
system.mem_ctrls1.wrQLenPdf::40                     0                       # What write queue length does an incoming req see
system.mem_ctrls1.wrQLenPdf::41                     0                       # What write queue length does an incoming req see
system.mem_ctrls1.wrQLenPdf::42                     0                       # What write queue length does an incoming req see
system.mem_ctrls1.wrQLenPdf::43                     0                       # What write queue length does an incoming req see
system.mem_ctrls1.wrQLenPdf::44                     0                       # What write queue length does an incoming req see
system.mem_ctrls1.wrQLenPdf::45                     0                       # What write queue length does an incoming req see
system.mem_ctrls1.wrQLenPdf::46                     0                       # What write queue length does an incoming req see
system.mem_ctrls1.wrQLenPdf::47                     0                       # What write queue length does an incoming req see
system.mem_ctrls1.wrQLenPdf::48                     0                       # What write queue length does an incoming req see
system.mem_ctrls1.wrQLenPdf::49                     0                       # What write queue length does an incoming req see
system.mem_ctrls1.wrQLenPdf::50                     0                       # What write queue length does an incoming req see
system.mem_ctrls1.wrQLenPdf::51                     0                       # What write queue length does an incoming req see
system.mem_ctrls1.wrQLenPdf::52                     0                       # What write queue length does an incoming req see
system.mem_ctrls1.wrQLenPdf::53                     0                       # What write queue length does an incoming req see
system.mem_ctrls1.wrQLenPdf::54                     0                       # What write queue length does an incoming req see
system.mem_ctrls1.wrQLenPdf::55                     0                       # What write queue length does an incoming req see
system.mem_ctrls1.wrQLenPdf::56                     0                       # What write queue length does an incoming req see
system.mem_ctrls1.wrQLenPdf::57                     0                       # What write queue length does an incoming req see
system.mem_ctrls1.wrQLenPdf::58                     0                       # What write queue length does an incoming req see
system.mem_ctrls1.wrQLenPdf::59                     0                       # What write queue length does an incoming req see
system.mem_ctrls1.wrQLenPdf::60                     0                       # What write queue length does an incoming req see
system.mem_ctrls1.wrQLenPdf::61                     0                       # What write queue length does an incoming req see
system.mem_ctrls1.wrQLenPdf::62                     0                       # What write queue length does an incoming req see
system.mem_ctrls1.wrQLenPdf::63                     0                       # What write queue length does an incoming req see
system.mem_ctrls1.bytesPerActivate::samples        17538                       # Bytes accessed per row activation
system.mem_ctrls1.bytesPerActivate::mean   171.841715                       # Bytes accessed per row activation
system.mem_ctrls1.bytesPerActivate::gmean   121.027949                       # Bytes accessed per row activation
system.mem_ctrls1.bytesPerActivate::stdev   192.094307                       # Bytes accessed per row activation
system.mem_ctrls1.bytesPerActivate::0-127         8523     48.60%     48.60% # Bytes accessed per row activation
system.mem_ctrls1.bytesPerActivate::128-255         5698     32.49%     81.09% # Bytes accessed per row activation
system.mem_ctrls1.bytesPerActivate::256-383         1304      7.44%     88.52% # Bytes accessed per row activation
system.mem_ctrls1.bytesPerActivate::384-511         1040      5.93%     94.45% # Bytes accessed per row activation
system.mem_ctrls1.bytesPerActivate::512-639          192      1.09%     95.55% # Bytes accessed per row activation
system.mem_ctrls1.bytesPerActivate::640-767          110      0.63%     96.17% # Bytes accessed per row activation
system.mem_ctrls1.bytesPerActivate::768-895          113      0.64%     96.82% # Bytes accessed per row activation
system.mem_ctrls1.bytesPerActivate::896-1023          162      0.92%     97.74% # Bytes accessed per row activation
system.mem_ctrls1.bytesPerActivate::1024-1151          396      2.26%    100.00% # Bytes accessed per row activation
system.mem_ctrls1.bytesPerActivate::total        17538                       # Bytes accessed per row activation
system.mem_ctrls1.rdPerTurnAround::samples          125                       # Reads before turning the bus around for writes
system.mem_ctrls1.rdPerTurnAround::mean    358.720000                       # Reads before turning the bus around for writes
system.mem_ctrls1.rdPerTurnAround::gmean    88.252388                       # Reads before turning the bus around for writes
system.mem_ctrls1.rdPerTurnAround::stdev  2624.636680                       # Reads before turning the bus around for writes
system.mem_ctrls1.rdPerTurnAround::0-1023          124     99.20%     99.20% # Reads before turning the bus around for writes
system.mem_ctrls1.rdPerTurnAround::28672-29695            1      0.80%    100.00% # Reads before turning the bus around for writes
system.mem_ctrls1.rdPerTurnAround::total          125                       # Reads before turning the bus around for writes
system.mem_ctrls1.wrPerTurnAround::samples          125                       # Writes before turning the bus around for reads
system.mem_ctrls1.wrPerTurnAround::mean     17.920000                       # Writes before turning the bus around for reads
system.mem_ctrls1.wrPerTurnAround::gmean    17.901443                       # Writes before turning the bus around for reads
system.mem_ctrls1.wrPerTurnAround::stdev     0.838586                       # Writes before turning the bus around for reads
system.mem_ctrls1.wrPerTurnAround::16              11      8.80%      8.80% # Writes before turning the bus around for reads
system.mem_ctrls1.wrPerTurnAround::18             108     86.40%     95.20% # Writes before turning the bus around for reads
system.mem_ctrls1.wrPerTurnAround::19               4      3.20%     98.40% # Writes before turning the bus around for reads
system.mem_ctrls1.wrPerTurnAround::20               1      0.80%     99.20% # Writes before turning the bus around for reads
system.mem_ctrls1.wrPerTurnAround::24               1      0.80%    100.00% # Writes before turning the bus around for reads
system.mem_ctrls1.wrPerTurnAround::total          125                       # Writes before turning the bus around for reads
system.mem_ctrls1.totQLat                  3439404268                       # Total ticks spent queuing
system.mem_ctrls1.totMemAccLat             4280341768                       # Total ticks spent from burst creation until serviced by the DRAM
system.mem_ctrls1.totBusLat                 224250000                       # Total ticks spent in databus transfers
system.mem_ctrls1.avgQLat                    76686.83                       # Average queueing delay per DRAM burst
system.mem_ctrls1.avgBusLat                   5000.00                       # Average bus latency per DRAM burst
system.mem_ctrls1.avgMemAccLat               95436.83                       # Average memory access latency per DRAM burst
system.mem_ctrls1.avgRdBW                        2.76                       # Average DRAM read bandwidth in MiByte/s
system.mem_ctrls1.avgWrBW                        0.14                       # Average achieved write bandwidth in MiByte/s
system.mem_ctrls1.avgRdBWSys                     2.81                       # Average system read bandwidth in MiByte/s
system.mem_ctrls1.avgWrBWSys                     0.14                       # Average system write bandwidth in MiByte/s
system.mem_ctrls1.peakBW                     12800.00                       # Theoretical peak bandwidth in MiByte/s
system.mem_ctrls1.busUtil                        0.02                       # Data bus utilization in percentage
system.mem_ctrls1.busUtilRead                    0.02                       # Data bus utilization in percentage for reads
system.mem_ctrls1.busUtilWrite                   0.00                       # Data bus utilization in percentage for writes
system.mem_ctrls1.avgRdQLen                      1.00                       # Average read queue length when enqueuing
system.mem_ctrls1.avgWrQLen                     13.57                       # Average write queue length when enqueuing
system.mem_ctrls1.readRowHits                   29142                       # Number of row buffer hits during reads
system.mem_ctrls1.writeRowHits                    410                       # Number of row buffer hits during writes
system.mem_ctrls1.readRowHitRate                64.98                       # Row buffer hit rate for reads
system.mem_ctrls1.writeRowHitRate               18.11                       # Row buffer hit rate for writes
system.mem_ctrls1.avgGap                  21684783.60                       # Average gap between requests
system.mem_ctrls1.pageHitRate                   62.72                       # Row buffer hit rate, read and write combined
system.mem_ctrls1_0.actEnergy                56777280                       # Energy for activate commands per rank (pJ)
system.mem_ctrls1_0.preEnergy                30177840                       # Energy for precharge commands per rank (pJ)
system.mem_ctrls1_0.readEnergy              154181160                       # Energy for read commands per rank (pJ)
system.mem_ctrls1_0.writeEnergy               4828500                       # Energy for write commands per rank (pJ)
system.mem_ctrls1_0.refreshEnergy        5548355280.000001                       # Energy for refresh commands per rank (pJ)
system.mem_ctrls1_0.actBackEnergy          1556291520                       # Energy for active background per rank (pJ)
system.mem_ctrls1_0.preBackEnergy           336163680                       # Energy for precharge background per rank (pJ)
system.mem_ctrls1_0.actPowerDownEnergy    12031603320                       # Energy for active power-down per rank (pJ)
system.mem_ctrls1_0.prePowerDownEnergy     8291318880                       # Energy for precharge power-down per rank (pJ)
system.mem_ctrls1_0.selfRefreshEnergy    238281186030                       # Energy for self refresh per rank (pJ)
system.mem_ctrls1_0.totalEnergy          266292887130                       # Total energy per rank (pJ)
system.mem_ctrls1_0.averagePower           256.202963                       # Core power per rank (mW)
system.mem_ctrls1_0.totalIdleTime        1034959069395                       # Total Idle time Per DRAM Rank
system.mem_ctrls1_0.memoryStateTime::IDLE    682362367                       # Time in different power states
system.mem_ctrls1_0.memoryStateTime::REF   2362146000                       # Time in different power states
system.mem_ctrls1_0.memoryStateTime::SREF 987112670200                       # Time in different power states
system.mem_ctrls1_0.memoryStateTime::PRE_PDN  21592011021                       # Time in different power states
system.mem_ctrls1_0.memoryStateTime::ACT   1248211781                       # Time in different power states
system.mem_ctrls1_0.memoryStateTime::ACT_PDN  26385142331                       # Time in different power states
system.mem_ctrls1_1.actEnergy                68444040                       # Energy for activate commands per rank (pJ)
system.mem_ctrls1_1.preEnergy                36378870                       # Energy for precharge commands per rank (pJ)
system.mem_ctrls1_1.readEnergy              166047840                       # Energy for read commands per rank (pJ)
system.mem_ctrls1_1.writeEnergy               6864300                       # Energy for write commands per rank (pJ)
system.mem_ctrls1_1.refreshEnergy        6816357600.000002                       # Energy for refresh commands per rank (pJ)
system.mem_ctrls1_1.actBackEnergy          1831453890                       # Energy for active background per rank (pJ)
system.mem_ctrls1_1.preBackEnergy           414693120                       # Energy for precharge background per rank (pJ)
system.mem_ctrls1_1.actPowerDownEnergy    14722018140                       # Energy for active power-down per rank (pJ)
system.mem_ctrls1_1.prePowerDownEnergy    10398990240                       # Energy for precharge power-down per rank (pJ)
system.mem_ctrls1_1.selfRefreshEnergy    235648791930                       # Energy for self refresh per rank (pJ)
system.mem_ctrls1_1.totalEnergy          270113318730                       # Total energy per rank (pJ)
system.mem_ctrls1_1.averagePower           259.878637                       # Core power per rank (mW)
system.mem_ctrls1_1.totalIdleTime        1034278324903                       # Total Idle time Per DRAM Rank
system.mem_ctrls1_1.memoryStateTime::IDLE    844149540                       # Time in different power states
system.mem_ctrls1_1.memoryStateTime::REF   2901784000                       # Time in different power states
system.mem_ctrls1_1.memoryStateTime::SREF 974913176125                       # Time in different power states
system.mem_ctrls1_1.memoryStateTime::PRE_PDN  27080781918                       # Time in different power states
system.mem_ctrls1_1.memoryStateTime::ACT   1357455432                       # Time in different power states
system.mem_ctrls1_1.memoryStateTime::ACT_PDN  32285196685                       # Time in different power states
system.pwrStateResidencyTicks::UNDEFINED 176590666665567                       # Cumulative time (in ticks) in various power states
system.cpu.branchPred.lookups                       4                       # Number of BP lookups
system.cpu.branchPred.condPredicted                 2                       # Number of conditional branches predicted
system.cpu.branchPred.condIncorrect                 1                       # Number of conditional branches incorrect
system.cpu.branchPred.BTBLookups                    2                       # Number of BTB lookups
system.cpu.branchPred.BTBHits                       0                       # Number of BTB hits
system.cpu.branchPred.BTBCorrect                    0                       # Number of correct BTB predictions (this stat may not work properly.
system.cpu.branchPred.BTBHitPct              0.000000                       # BTB Hit Percentage
system.cpu.branchPred.usedRAS                       0                       # Number of times the RAS was used to get a target.
system.cpu.branchPred.RASInCorrect                  0                       # Number of incorrect RAS predictions.
system.cpu.branchPred.indirectLookups               0                       # Number of indirect predictor lookups.
system.cpu.branchPred.indirectHits                  0                       # Number of indirect target hits.
system.cpu.branchPred.indirectMisses                0                       # Number of indirect misses.
system.cpu.branchPredindirectMispredicted            0                       # Number of mispredicted indirect branches.
system.cpu_voltage_domain.voltage                   1                       # Voltage in Volts
system.cpu_clk_domain.clock                       333                       # Clock period in ticks
system.cpu.dtb.fetch_hits                           0                       # ITB hits
system.cpu.dtb.fetch_misses                         0                       # ITB misses
system.cpu.dtb.fetch_acv                            0                       # ITB acv
system.cpu.dtb.fetch_accesses                       0                       # ITB accesses
system.cpu.dtb.read_hits                           10                       # DTB read hits
system.cpu.dtb.read_misses                          0                       # DTB read misses
system.cpu.dtb.read_acv                             0                       # DTB read access violations
system.cpu.dtb.read_accesses                       10                       # DTB read accesses
system.cpu.dtb.write_hits                           0                       # DTB write hits
system.cpu.dtb.write_misses                         0                       # DTB write misses
system.cpu.dtb.write_acv                            0                       # DTB write access violations
system.cpu.dtb.write_accesses                       0                       # DTB write accesses
system.cpu.dtb.data_hits                           10                       # DTB hits
system.cpu.dtb.data_misses                          0                       # DTB misses
system.cpu.dtb.data_acv                             0                       # DTB access violations
system.cpu.dtb.data_accesses                       10                       # DTB accesses
system.cpu.itb.fetch_hits                           5                       # ITB hits
system.cpu.itb.fetch_misses                         0                       # ITB misses
system.cpu.itb.fetch_acv                            0                       # ITB acv
system.cpu.itb.fetch_accesses                       5                       # ITB accesses
system.cpu.itb.read_hits                            0                       # DTB read hits
system.cpu.itb.read_misses                          0                       # DTB read misses
system.cpu.itb.read_acv                             0                       # DTB read access violations
system.cpu.itb.read_accesses                        0                       # DTB read accesses
system.cpu.itb.write_hits                           0                       # DTB write hits
system.cpu.itb.write_misses                         0                       # DTB write misses
system.cpu.itb.write_acv                            0                       # DTB write access violations
system.cpu.itb.write_accesses                       0                       # DTB write accesses
system.cpu.itb.data_hits                            0                       # DTB hits
system.cpu.itb.data_misses                          0                       # DTB misses
system.cpu.itb.data_acv                             0                       # DTB access violations
system.cpu.itb.data_accesses                        0                       # DTB accesses
system.cpu.workload.num_syscalls                    0                       # Number of system calls
system.cpu.pwrStateResidencyTicks::ON    1039382543700                       # Cumulative time (in ticks) in various power states
system.cpu.numCycles                              567                       # number of cpu cycles simulated
system.cpu.numWorkItemsStarted                      0                       # number of work items this cpu started
system.cpu.numWorkItemsCompleted                    0                       # number of work items this cpu completed
system.cpu.fetch.icacheStallCycles                 47                       # Number of cycles fetch is stalled on an Icache miss
system.cpu.fetch.Insts                             32                       # Number of instructions fetch has processed
system.cpu.fetch.Branches                           4                       # Number of branches that fetch encountered
system.cpu.fetch.Cycles                             4                       # Number of cycles fetch has run and was not squashing or blocked
system.cpu.fetch.SquashCycles                       5                       # Number of cycles fetch has spent squashing
system.cpu.fetch.PendingDrainCycles                 7                       # Number of cycles fetch has spent waiting on pipes to drain
system.cpu.fetch.CacheLines                         5                       # Number of cache lines fetched
system.cpu.fetch.IcacheSquashes                     3                       # Number of outstanding Icache misses that were squashed
system.cpu.fetch.rateDist::samples                 60                       # Number of instructions fetched each cycle (Total)
system.cpu.fetch.rateDist::mean              0.533333                       # Number of instructions fetched each cycle (Total)
system.cpu.fetch.rateDist::stdev             2.012391                       # Number of instructions fetched each cycle (Total)
system.cpu.fetch.rateDist::underflows               0      0.00%      0.00% # Number of instructions fetched each cycle (Total)
system.cpu.fetch.rateDist::0                       56     93.33%     93.33% # Number of instructions fetched each cycle (Total)
system.cpu.fetch.rateDist::1                        0      0.00%     93.33% # Number of instructions fetched each cycle (Total)
system.cpu.fetch.rateDist::2                        0      0.00%     93.33% # Number of instructions fetched each cycle (Total)
system.cpu.fetch.rateDist::3                        0      0.00%     93.33% # Number of instructions fetched each cycle (Total)
system.cpu.fetch.rateDist::4                        0      0.00%     93.33% # Number of instructions fetched each cycle (Total)
system.cpu.fetch.rateDist::5                        0      0.00%     93.33% # Number of instructions fetched each cycle (Total)
system.cpu.fetch.rateDist::6                        0      0.00%     93.33% # Number of instructions fetched each cycle (Total)
system.cpu.fetch.rateDist::7                        0      0.00%     93.33% # Number of instructions fetched each cycle (Total)
system.cpu.fetch.rateDist::8                        4      6.67%    100.00% # Number of instructions fetched each cycle (Total)
system.cpu.fetch.rateDist::overflows                0      0.00%    100.00% # Number of instructions fetched each cycle (Total)
[...]
system.switch_cpus_1.iq.int_inst_queue_writes    559850101                       # Number of integer instruction queue writes
system.switch_cpus_1.iq.int_inst_queue_wakeup_accesses    516449791                       # Number of integer instruction queue wakeup accesses
system.switch_cpus_1.iq.fp_inst_queue_reads      5937875                       # Number of floating instruction queue reads
system.switch_cpus_1.iq.fp_inst_queue_writes      3072862                       # Number of floating instruction queue writes
system.switch_cpus_1.iq.fp_inst_queue_wakeup_accesses      2948727                       # Number of floating instruction queue wakeup accesses
system.switch_cpus_1.iq.int_alu_accesses    545511639                       # Number of integer alu accesses
system.switch_cpus_1.iq.fp_alu_accesses       2977141                       # Number of floating point alu accesses
system.switch_cpus_1.iew.lsq.thread0.forwLoads      6860832                       # Number of loads that had data forwarded from stores
system.switch_cpus_1.iew.lsq.thread0.invAddrLoads            0                       # Number of loads ignored due to an invalid address
system.switch_cpus_1.iew.lsq.thread0.squashedLoads      7152556                       # Number of loads squashed
system.switch_cpus_1.iew.lsq.thread0.ignoredResponses        20854                       # Number of memory responses ignored because the instruction is squashed
system.switch_cpus_1.iew.lsq.thread0.memOrderViolation        74491                       # Number of memory ordering violations
system.switch_cpus_1.iew.lsq.thread0.squashedStores      1331364                       # Number of stores squashed
system.switch_cpus_1.iew.lsq.thread0.invAddrSwpfs            0                       # Number of software prefetches ignored due to an invalid address
system.switch_cpus_1.iew.lsq.thread0.blockedLoads            0                       # Number of blocked loads due to partial load-store forwarding
system.switch_cpus_1.iew.lsq.thread0.rescheduledLoads         2629                       # Number of loads that were rescheduled
system.switch_cpus_1.iew.lsq.thread0.cacheBlocked      1238155                       # Number of times an access to memory failed due to the cache being blocked
system.switch_cpus_1.iew.iewIdleCycles              0                       # Number of cycles IEW is idle
system.switch_cpus_1.iew.iewSquashCycles       805409                       # Number of cycles IEW is squashing
system.switch_cpus_1.iew.iewBlockCycles       3825664                       # Number of cycles IEW is blocking
system.switch_cpus_1.iew.iewUnblockCycles      3660804                       # Number of cycles IEW is unblocking
system.switch_cpus_1.iew.iewDispatchedInsts    534551359                       # Number of instructions dispatched to IQ
system.switch_cpus_1.iew.iewDispSquashedInsts       103788                       # Number of squashed instructions skipped by dispatch
system.switch_cpus_1.iew.iewDispLoadInsts    174951506                       # Number of dispatched load instructions
system.switch_cpus_1.iew.iewDispStoreInsts     33947101                       # Number of dispatched store instructions
system.switch_cpus_1.iew.iewDispNonSpecInsts            0                       # Number of dispatched non-speculative instructions
system.switch_cpus_1.iew.iewIQFullEvents        21319                       # Number of times the IQ has become full, causing a stall
system.switch_cpus_1.iew.iewLSQFullEvents      3646359                       # Number of times the LSQ has become full, causing a stall
system.switch_cpus_1.iew.memOrderViolationEvents        74491                       # Number of memory order violations
system.switch_cpus_1.iew.predictedTakenIncorrect       555960                       # Number of branches that were predicted taken incorrectly
system.switch_cpus_1.iew.predictedNotTakenIncorrect       212250                       # Number of branches that were predicted not taken incorrectly
system.switch_cpus_1.iew.branchMispredicts       768210                       # Number of branch mispredicts detected at execute
system.switch_cpus_1.iew.iewExecutedInsts    522354670                       # Number of executed instructions
system.switch_cpus_1.iew.iewExecLoadInsts    174291654                       # Number of load instructions executed
system.switch_cpus_1.iew.iewExecSquashedInsts      1493896                       # Number of squashed instructions skipped in execute
system.switch_cpus_1.iew.exec_swp                   0                       # number of swp insts executed
system.switch_cpus_1.iew.exec_nop             3126872                       # number of nop insts executed
system.switch_cpus_1.iew.exec_refs          207380057                       # number of memory reference insts executed
system.switch_cpus_1.iew.exec_branches       39660713                       # Number of branches executed
system.switch_cpus_1.iew.exec_stores         33088403                       # Number of stores executed
system.switch_cpus_1.iew.exec_rate           2.886893                       # Inst execution rate
system.switch_cpus_1.iew.wb_sent            520207561                       # cumulative count of insts sent to commit
system.switch_cpus_1.iew.wb_count           519398518                       # cumulative count of insts written-back
system.switch_cpus_1.iew.wb_producers       337115256                       # num instructions producing a value
system.switch_cpus_1.iew.wb_consumers       412453335                       # num instructions consuming a value
system.switch_cpus_1.iew.wb_rate             2.870556                       # insts written-back per cycle
system.switch_cpus_1.iew.wb_fanout           0.817342                       # average fanout of values written-back
system.switch_cpus_1.commit.commitSquashedInsts     30449944                       # The number of squashed insts skipped by commit
system.switch_cpus_1.commit.branchMispredicts       674497                       # The number of times a branch was mispredicted
system.switch_cpus_1.commit.committed_per_cycle::samples    176151328                       # Number of insts commited each cycle
system.switch_cpus_1.commit.committed_per_cycle::mean     2.854890                       # Number of insts commited each cycle
system.switch_cpus_1.commit.committed_per_cycle::stdev     3.188158                       # Number of insts commited each cycle
system.switch_cpus_1.commit.committed_per_cycle::underflows            0      0.00%      0.00% # Number of insts commited each cycle
system.switch_cpus_1.commit.committed_per_cycle::0     69944273     39.71%     39.71% # Number of insts commited each cycle
system.switch_cpus_1.commit.committed_per_cycle::1     22705589     12.89%     52.60% # Number of insts commited each cycle
system.switch_cpus_1.commit.committed_per_cycle::2     11256680      6.39%     58.99% # Number of insts commited each cycle
system.switch_cpus_1.commit.committed_per_cycle::3     10059074      5.71%     64.70% # Number of insts commited each cycle
system.switch_cpus_1.commit.committed_per_cycle::4      6443241      3.66%     68.36% # Number of insts commited each cycle
system.switch_cpus_1.commit.committed_per_cycle::5      8627221      4.90%     73.25% # Number of insts commited each cycle
system.switch_cpus_1.commit.committed_per_cycle::6      4386708      2.49%     75.74% # Number of insts commited each cycle
system.switch_cpus_1.commit.committed_per_cycle::7      9561133      5.43%     81.17% # Number of insts commited each cycle
system.switch_cpus_1.commit.committed_per_cycle::8     33167409     18.83%    100.00% # Number of insts commited each cycle
system.switch_cpus_1.commit.committed_per_cycle::overflows            0      0.00%    100.00% # Number of insts commited each cycle
system.switch_cpus_1.commit.committed_per_cycle::min_value            0                       # Number of insts commited each cycle
system.switch_cpus_1.commit.committed_per_cycle::max_value            8                       # Number of insts commited each cycle
system.switch_cpus_1.commit.committed_per_cycle::total    176151328                       # Number of insts commited each cycle
system.switch_cpus_1.commit.committedInsts    502892691                       # Number of instructions committed
system.switch_cpus_1.commit.committedOps    502892691                       # Number of ops (including micro ops) committed
system.switch_cpus_1.commit.swp_count               0                       # Number of s/w prefetches committed
system.switch_cpus_1.commit.refs            200414679                       # Number of memory references committed
system.switch_cpus_1.commit.loads           167798943                       # Number of loads committed
system.switch_cpus_1.commit.membars                 0                       # Number of memory barriers committed
system.switch_cpus_1.commit.branches         37436953                       # Number of branches committed
system.switch_cpus_1.commit.fp_insts          2883784                       # Number of committed floating point instructions.
system.switch_cpus_1.commit.int_insts       496518886                       # Number of committed integer instructions.
system.switch_cpus_1.commit.function_calls      4873554                       # Number of function calls committed.
system.switch_cpus_1.commit.op_class_0::No_OpClass      3237686      0.64%      0.64% # Class of committed instruction
system.switch_cpus_1.commit.op_class_0::IntAlu    295107947     58.68%     59.33% # Class of committed instruction
system.switch_cpus_1.commit.op_class_0::IntMult      2397783      0.48%     59.80% # Class of committed instruction
system.switch_cpus_1.commit.op_class_0::IntDiv            0      0.00%     59.80% # Class of committed instruction
system.switch_cpus_1.commit.op_class_0::FloatAdd       978297      0.19%     60.00% # Class of committed instruction
system.switch_cpus_1.commit.op_class_0::FloatCmp        23447      0.00%     60.00% # Class of committed instruction
system.switch_cpus_1.commit.op_class_0::FloatCvt       543976      0.11%     60.11% # Class of committed instruction
system.switch_cpus_1.commit.op_class_0::FloatMult        16359      0.00%     60.11% # Class of committed instruction
system.switch_cpus_1.commit.op_class_0::FloatMultAcc            0      0.00%     60.11% # Class of committed instruction
system.switch_cpus_1.commit.op_class_0::FloatDiv       172508      0.03%     60.15% # Class of committed instruction
system.switch_cpus_1.commit.op_class_0::FloatMisc            0      0.00%     60.15% # Class of committed instruction
system.switch_cpus_1.commit.op_class_0::FloatSqrt            9      0.00%     60.15% # Class of committed instruction
system.switch_cpus_1.commit.op_class_0::SimdAdd            0      0.00%     60.15% # Class of committed instruction
system.switch_cpus_1.commit.op_class_0::SimdAddAcc            0      0.00%     60.15% # Class of committed instruction
system.switch_cpus_1.commit.op_class_0::SimdAlu            0      0.00%     60.15% # Class of committed instruction
system.switch_cpus_1.commit.op_class_0::SimdCmp            0      0.00%     60.15% # Class of committed instruction
system.switch_cpus_1.commit.op_class_0::SimdCvt            0      0.00%     60.15% # Class of committed instruction
system.switch_cpus_1.commit.op_class_0::SimdMisc            0      0.00%     60.15% # Class of committed instruction
system.switch_cpus_1.commit.op_class_0::SimdMult            0      0.00%     60.15% # Class of committed instruction
system.switch_cpus_1.commit.op_class_0::SimdMultAcc            0      0.00%     60.15% # Class of committed instruction
system.switch_cpus_1.commit.op_class_0::SimdShift            0      0.00%     60.15% # Class of committed instruction
system.switch_cpus_1.commit.op_class_0::SimdShiftAcc            0      0.00%     60.15% # Class of committed instruction
system.switch_cpus_1.commit.op_class_0::SimdSqrt            0      0.00%     60.15% # Class of committed instruction
system.switch_cpus_1.commit.op_class_0::SimdFloatAdd            0      0.00%     60.15% # Class of committed instruction
system.switch_cpus_1.commit.op_class_0::SimdFloatAlu            0      0.00%     60.15% # Class of committed instruction
system.switch_cpus_1.commit.op_class_0::SimdFloatCmp            0      0.00%     60.15% # Class of committed instruction
system.switch_cpus_1.commit.op_class_0::SimdFloatCvt            0      0.00%     60.15% # Class of committed instruction
system.switch_cpus_1.commit.op_class_0::SimdFloatDiv            0      0.00%     60.15% # Class of committed instruction
system.switch_cpus_1.commit.op_class_0::SimdFloatMisc            0      0.00%     60.15% # Class of committed instruction
system.switch_cpus_1.commit.op_class_0::SimdFloatMult            0      0.00%     60.15% # Class of committed instruction
system.switch_cpus_1.commit.op_class_0::SimdFloatMultAcc            0      0.00%     60.15% # Class of committed instruction
system.switch_cpus_1.commit.op_class_0::SimdFloatSqrt            0      0.00%     60.15% # Class of committed instruction
system.switch_cpus_1.commit.op_class_0::MemRead    167210258     33.25%     93.40% # Class of committed instruction
system.switch_cpus_1.commit.op_class_0::MemWrite     32055233      6.37%     99.77% # Class of committed instruction
system.switch_cpus_1.commit.op_class_0::FloatMemRead       588685      0.12%     99.89% # Class of committed instruction
system.switch_cpus_1.commit.op_class_0::FloatMemWrite       560503      0.11%    100.00% # Class of committed instruction
system.switch_cpus_1.commit.op_class_0::IprAccess            0      0.00%    100.00% # Class of committed instruction
system.switch_cpus_1.commit.op_class_0::InstPrefetch            0      0.00%    100.00% # Class of committed instruction
system.switch_cpus_1.commit.op_class_0::total    502892691                       # Class of committed instruction
system.switch_cpus_1.commit.bw_lim_events     33167409                       # number cycles where commit BW limit reached
system.switch_cpus_1.rob.rob_reads          675477069                       # The number of ROB reads
system.switch_cpus_1.rob.rob_writes        1070876267                       # The number of ROB writes
system.switch_cpus_1.timesIdled                 29241                       # Number of times that the entire CPU went into an idle state and unscheduled itself
system.switch_cpus_1.idleCycles                601534                       # Total number of cycles that the CPU has spent unscheduled due to idling
system.switch_cpus_1.committedInsts         500000003                       # Number of Instructions Simulated
system.switch_cpus_1.committedOps           500000003                       # Number of Ops (including micro ops) Simulated
system.switch_cpus_1.cpi                     0.361880                       # CPI: Cycles Per Instruction
system.switch_cpus_1.cpi_total               0.361880                       # CPI: Total CPI of All Threads
system.switch_cpus_1.ipc                     2.763346                       # IPC: Instructions Per Cycle
system.switch_cpus_1.ipc_total               2.763346                       # IPC: Total IPC of All Threads
system.switch_cpus_1.int_regfile_reads      764684693                       # number of integer regfile reads
system.switch_cpus_1.int_regfile_writes     449688940                       # number of integer regfile writes
system.switch_cpus_1.fp_regfile_reads         2110132                       # number of floating regfile reads
system.switch_cpus_1.fp_regfile_writes        1980335                       # number of floating regfile writes
system.switch_cpus_1.misc_regfile_reads        355468                       # number of misc regfile reads
system.switch_cpus_1.misc_regfile_writes       172499                       # number of misc regfile writes
system.tol3bus.snoop_filter.tot_requests      4081357                       # Total number of requests made to the snoop filter.
system.tol3bus.snoop_filter.hit_single_requests      2038408                       # Number of requests hitting in the snoop filter with a single holder of the requested data.
system.tol3bus.snoop_filter.hit_multi_requests            0                       # Number of requests hitting in the snoop filter with multiple (>1) holders of the requested data.
system.tol3bus.snoop_filter.tot_snoops            231                       # Total number of snoops made to the snoop filter.
system.tol3bus.snoop_filter.hit_single_snoops          231                       # Number of snoops hitting in the snoop filter with a single holder of the requested data.
system.tol3bus.snoop_filter.hit_multi_snoops            0                       # Number of snoops hitting in the snoop filter with multiple (>1) holders of the requested data.
system.tol3bus.pwrStateResidencyTicks::UNDEFINED 176590666665567                       # Cumulative time (in ticks) in various power states
system.tol3bus.trans_dist::ReadResp           1211971                       # Transaction distribution
system.tol3bus.trans_dist::WritebackDirty      1580474                       # Transaction distribution
system.tol3bus.trans_dist::CleanEvict          483679                       # Transaction distribution
system.tol3bus.trans_dist::UpgradeReq               5                       # Transaction distribution
system.tol3bus.trans_dist::UpgradeResp              5                       # Transaction distribution
system.tol3bus.trans_dist::ReadExReq           830978                       # Transaction distribution
system.tol3bus.trans_dist::ReadExResp          830978                       # Transaction distribution
system.tol3bus.trans_dist::ReadSharedReq      1211971                       # Transaction distribution
system.tol3bus.pkt_count_system.cpu.l2.mem_side::system.l3.cpu_side      6124311                       # Packet count per connected master and slave (bytes)
system.tol3bus.pkt_size_system.cpu.l2.mem_side::system.l3.cpu_side    231609088                       # Cumulative packet size per connected master and slave (bytes)
system.tol3bus.snoops                           25750                       # Total snoops (count)
system.tol3bus.snoopTraffic                    289984                       # Total snoop traffic (bytes)
system.tol3bus.snoop_fanout::samples          2068704                       # Request fanout histogram
system.tol3bus.snoop_fanout::mean            0.000112                       # Request fanout histogram
system.tol3bus.snoop_fanout::stdev           0.010567                       # Request fanout histogram
system.tol3bus.snoop_fanout::underflows             0      0.00%      0.00% # Request fanout histogram
system.tol3bus.snoop_fanout::0                2068473     99.99%     99.99% # Request fanout histogram
system.tol3bus.snoop_fanout::1                    231      0.01%    100.00% # Request fanout histogram
system.tol3bus.snoop_fanout::overflows              0      0.00%    100.00% # Request fanout histogram
system.tol3bus.snoop_fanout::min_value              0                       # Request fanout histogram
system.tol3bus.snoop_fanout::max_value              1                       # Request fanout histogram
system.tol3bus.snoop_fanout::total            2068704                       # Request fanout histogram
system.tol3bus.reqLayer0.occupancy         1883880900                       # Layer occupancy (ticks)
system.tol3bus.reqLayer0.utilization              0.2                       # Layer utilization (%)
system.tol3bus.respLayer0.occupancy        1360605699                       # Layer occupancy (ticks)
system.tol3bus.respLayer0.utilization             0.1                       # Layer utilization (%)

---------- End Simulation Statistics   ----------
