
---------- Begin Simulation Statistics ----------
sim_seconds                                  1.090778                       # Number of seconds simulated
sim_ticks                                1090778490639                       # Number of ticks simulated
final_tick                               31102192651689                       # Number of ticks from beginning of simulation (restored from checkpoints and never reset)
sim_freq                                 1000000000000                       # Frequency of simulated ticks
host_inst_rate                                 540331                       # Simulator instruction rate (inst/s)
host_op_rate                                   540331                       # Simulator op (including micro ops) rate (op/s)
host_tick_rate                              491151132                       # Simulator tick rate (ticks/s)
host_mem_usage                                2328220                       # Number of bytes of host memory used
host_seconds                                  2220.86                       # Real time elapsed on the host
sim_insts                                  1200000007                       # Number of instructions simulated
sim_ops                                    1200000007                       # Number of ops (including micro ops) simulated
system.voltage_domain.voltage                       1                       # Voltage in Volts
system.clk_domain.clock                          1000                       # Clock period in ticks
system.mem_ctrls0.pwrStateResidencyTicks::UNDEFINED 31102192651689                       # Cumulative time (in ticks) in various power states
system.mem_ctrls0.bytes_read::cpu.inst             64                       # Number of bytes read from this memory
system.mem_ctrls0.bytes_read::switch_cpus.inst       138560                       # Number of bytes read from this memory
system.mem_ctrls0.bytes_read::switch_cpus.data      3630976                       # Number of bytes read from this memory
system.mem_ctrls0.bytes_read::switch_cpus_1.inst       129024                       # Number of bytes read from this memory
system.mem_ctrls0.bytes_read::switch_cpus_1.data      1603136                       # Number of bytes read from this memory
system.mem_ctrls0.bytes_read::total           5501760                       # Number of bytes read from this memory
system.mem_ctrls0.bytes_inst_read::cpu.inst           64                       # Number of instructions bytes read from this memory
system.mem_ctrls0.bytes_inst_read::switch_cpus.inst       138560                       # Number of instructions bytes read from this memory
system.mem_ctrls0.bytes_inst_read::switch_cpus_1.inst       129024                       # Number of instructions bytes read from this memory
system.mem_ctrls0.bytes_inst_read::total       267648                       # Number of instructions bytes read from this memory
system.mem_ctrls0.bytes_written::writebacks       736320                       # Number of bytes written to this memory
system.mem_ctrls0.bytes_written::total         736320                       # Number of bytes written to this memory
system.mem_ctrls0.num_reads::cpu.inst               1                       # Number of read requests responded to by this memory
system.mem_ctrls0.num_reads::switch_cpus.inst         2165                       # Number of read requests responded to by this memory
system.mem_ctrls0.num_reads::switch_cpus.data        56734                       # Number of read requests responded to by this memory
system.mem_ctrls0.num_reads::switch_cpus_1.inst         2016                       # Number of read requests responded to by this memory
system.mem_ctrls0.num_reads::switch_cpus_1.data        25049                       # Number of read requests responded to by this memory
system.mem_ctrls0.num_reads::total              85965                       # Number of read requests responded to by this memory
system.mem_ctrls0.num_writes::writebacks        11505                       # Number of write requests responded to by this memory
system.mem_ctrls0.num_writes::total             11505                       # Number of write requests responded to by this memory
system.mem_ctrls0.bw_read::cpu.inst                59                       # Total read bandwidth from this memory (bytes/s)
system.mem_ctrls0.bw_read::switch_cpus.inst       127029                       # Total read bandwidth from this memory (bytes/s)
system.mem_ctrls0.bw_read::switch_cpus.data      3328793                       # Total read bandwidth from this memory (bytes/s)
system.mem_ctrls0.bw_read::switch_cpus_1.inst       118286                       # Total read bandwidth from this memory (bytes/s)
system.mem_ctrls0.bw_read::switch_cpus_1.data      1469717                       # Total read bandwidth from this memory (bytes/s)
system.mem_ctrls0.bw_read::total              5043884                       # Total read bandwidth from this memory (bytes/s)
system.mem_ctrls0.bw_inst_read::cpu.inst           59                       # Instruction read bandwidth from this memory (bytes/s)
system.mem_ctrls0.bw_inst_read::switch_cpus.inst       127029                       # Instruction read bandwidth from this memory (bytes/s)
system.mem_ctrls0.bw_inst_read::switch_cpus_1.inst       118286                       # Instruction read bandwidth from this memory (bytes/s)
system.mem_ctrls0.bw_inst_read::total          245373                       # Instruction read bandwidth from this memory (bytes/s)
system.mem_ctrls0.bw_write::writebacks         675041                       # Write bandwidth from this memory (bytes/s)
system.mem_ctrls0.bw_write::total              675041                       # Write bandwidth from this memory (bytes/s)
system.mem_ctrls0.bw_total::writebacks         675041                       # Total bandwidth to/from this memory (bytes/s)
system.mem_ctrls0.bw_total::cpu.inst               59                       # Total bandwidth to/from this memory (bytes/s)
system.mem_ctrls0.bw_total::switch_cpus.inst       127029                       # Total bandwidth to/from this memory (bytes/s)
system.mem_ctrls0.bw_total::switch_cpus.data      3328793                       # Total bandwidth to/from this memory (bytes/s)
system.mem_ctrls0.bw_total::switch_cpus_1.inst       118286                       # Total bandwidth to/from this memory (bytes/s)
system.mem_ctrls0.bw_total::switch_cpus_1.data      1469717                       # Total bandwidth to/from this memory (bytes/s)
system.mem_ctrls0.bw_total::total             5718925                       # Total bandwidth to/from this memory (bytes/s)
system.mem_ctrls0.readReqs                      85965                       # Number of read requests accepted
system.mem_ctrls0.writeReqs                     11505                       # Number of write requests accepted
system.mem_ctrls0.readBursts                    85965                       # Number of DRAM read bursts, including those serviced by the write queue
system.mem_ctrls0.writeBursts                   11505                       # Number of DRAM write bursts, including those merged in the write queue
system.mem_ctrls0.bytesReadDRAM               5499776                       # Total number of bytes read from DRAM
system.mem_ctrls0.bytesReadWrQ                   1984                       # Total number of bytes read from write queue
system.mem_ctrls0.bytesWritten                 735232                       # Total number of bytes written to DRAM
system.mem_ctrls0.bytesReadSys                5501760                       # Total read bytes from the system interface side
system.mem_ctrls0.bytesWrittenSys              736320                       # Total written bytes from the system interface side
system.mem_ctrls0.servicedByWrQ                    31                       # Number of DRAM read bursts serviced by the write queue
system.mem_ctrls0.mergedWrBursts                    0                       # Number of DRAM write bursts merged with an existing one
system.mem_ctrls0.neitherReadNorWriteReqs            0                       # Number of requests that are neither read nor write
system.mem_ctrls0.perBankRdBursts::0             5369                       # Per bank write bursts
system.mem_ctrls0.perBankRdBursts::1             5404                       # Per bank write bursts
system.mem_ctrls0.perBankRdBursts::2             6048                       # Per bank write bursts
system.mem_ctrls0.perBankRdBursts::3             5709                       # Per bank write bursts
system.mem_ctrls0.perBankRdBursts::4             5195                       # Per bank write bursts
system.mem_ctrls0.perBankRdBursts::5             5333                       # Per bank write bursts
system.mem_ctrls0.perBankRdBursts::6             4865                       # Per bank write bursts
system.mem_ctrls0.perBankRdBursts::7             4936                       # Per bank write bursts
system.mem_ctrls0.perBankRdBursts::8             5038                       # Per bank write bursts
system.mem_ctrls0.perBankRdBursts::9             5148                       # Per bank write bursts
system.mem_ctrls0.perBankRdBursts::10            4971                       # Per bank write bursts
system.mem_ctrls0.perBankRdBursts::11            4806                       # Per bank write bursts
system.mem_ctrls0.perBankRdBursts::12            6064                       # Per bank write bursts
system.mem_ctrls0.perBankRdBursts::13            5581                       # Per bank write bursts
system.mem_ctrls0.perBankRdBursts::14            5670                       # Per bank write bursts
system.mem_ctrls0.perBankRdBursts::15            5797                       # Per bank write bursts
system.mem_ctrls0.perBankWrBursts::0              716                       # Per bank write bursts
system.mem_ctrls0.perBankWrBursts::1              770                       # Per bank write bursts
system.mem_ctrls0.perBankWrBursts::2              837                       # Per bank write bursts
system.mem_ctrls0.perBankWrBursts::3              722                       # Per bank write bursts
system.mem_ctrls0.perBankWrBursts::4              680                       # Per bank write bursts
system.mem_ctrls0.perBankWrBursts::5              699                       # Per bank write bursts
system.mem_ctrls0.perBankWrBursts::6              539                       # Per bank write bursts
system.mem_ctrls0.perBankWrBursts::7              651                       # Per bank write bursts
system.mem_ctrls0.perBankWrBursts::8              644                       # Per bank write bursts
system.mem_ctrls0.perBankWrBursts::9              556                       # Per bank write bursts
system.mem_ctrls0.perBankWrBursts::10             558                       # Per bank write bursts
system.mem_ctrls0.perBankWrBursts::11             666                       # Per bank write bursts
system.mem_ctrls0.perBankWrBursts::12             957                       # Per bank write bursts
system.mem_ctrls0.perBankWrBursts::13             863                       # Per bank write bursts
system.mem_ctrls0.perBankWrBursts::14             877                       # Per bank write bursts
system.mem_ctrls0.perBankWrBursts::15             753                       # Per bank write bursts
system.mem_ctrls0.numRdRetry                        0                       # Number of times read queue was full causing retry
system.mem_ctrls0.numWrRetry                        0                       # Number of times write queue was full causing retry
system.mem_ctrls0.totGap                 1090777778019                       # Total gap between requests
system.mem_ctrls0.readPktSize::0                    0                       # Read request sizes (log2)
system.mem_ctrls0.readPktSize::1                    0                       # Read request sizes (log2)
system.mem_ctrls0.readPktSize::2                    0                       # Read request sizes (log2)
system.mem_ctrls0.readPktSize::3                    0                       # Read request sizes (log2)
system.mem_ctrls0.readPktSize::4                    0                       # Read request sizes (log2)
system.mem_ctrls0.readPktSize::5                    0                       # Read request sizes (log2)
system.mem_ctrls0.readPktSize::6                85965                       # Read request sizes (log2)
system.mem_ctrls0.writePktSize::0                   0                       # Write request sizes (log2)
system.mem_ctrls0.writePktSize::1                   0                       # Write request sizes (log2)
system.mem_ctrls0.writePktSize::2                   0                       # Write request sizes (log2)
system.mem_ctrls0.writePktSize::3                   0                       # Write request sizes (log2)
system.mem_ctrls0.writePktSize::4                   0                       # Write request sizes (log2)
system.mem_ctrls0.writePktSize::5                   0                       # Write request sizes (log2)
system.mem_ctrls0.writePktSize::6               11505                       # Write request sizes (log2)
system.mem_ctrls0.rdQLenPdf::0                  83443                       # What read queue length does an incoming req see
system.mem_ctrls0.rdQLenPdf::1                   2386                       # What read queue length does an incoming req see
system.mem_ctrls0.rdQLenPdf::2                     93                       # What read queue length does an incoming req see
system.mem_ctrls0.rdQLenPdf::3                     12                       # What read queue length does an incoming req see
system.mem_ctrls0.rdQLenPdf::4                      0                       # What read queue length does an incoming req see
system.mem_ctrls0.rdQLenPdf::5                      0                       # What read queue length does an incoming req see
system.mem_ctrls0.rdQLenPdf::6                      0                       # What read queue length does an incoming req see
system.mem_ctrls0.rdQLenPdf::7                      0                       # What read queue length does an incoming req see
system.mem_ctrls0.rdQLenPdf::8                      0                       # What read queue length does an incoming req see
system.mem_ctrls0.rdQLenPdf::9                      0                       # What read queue length does an incoming req see
system.mem_ctrls0.rdQLenPdf::10                     0                       # What read queue length does an incoming req see
system.mem_ctrls0.rdQLenPdf::11                     0                       # What read queue length does an incoming req see
system.mem_ctrls0.rdQLenPdf::12                     0                       # What read queue length does an incoming req see
system.mem_ctrls0.rdQLenPdf::13                     0                       # What read queue length does an incoming req see
system.mem_ctrls0.rdQLenPdf::14                     0                       # What read queue length does an incoming req see
system.mem_ctrls0.rdQLenPdf::15                     0                       # What read queue length does an incoming req see
system.mem_ctrls0.rdQLenPdf::16                     0                       # What read queue length does an incoming req see
system.mem_ctrls0.rdQLenPdf::17                     0                       # What read queue length does an incoming req see
system.mem_ctrls0.rdQLenPdf::18                     0                       # What read queue length does an incoming req see
system.mem_ctrls0.rdQLenPdf::19                     0                       # What read queue length does an incoming req see
system.mem_ctrls0.rdQLenPdf::20                     0                       # What read queue length does an incoming req see
system.mem_ctrls0.rdQLenPdf::21                     0                       # What read queue length does an incoming req see
system.mem_ctrls0.rdQLenPdf::22                     0                       # What read queue length does an incoming req see
system.mem_ctrls0.rdQLenPdf::23                     0                       # What read queue length does an incoming req see
system.mem_ctrls0.rdQLenPdf::24                     0                       # What read queue length does an incoming req see
system.mem_ctrls0.rdQLenPdf::25                     0                       # What read queue length does an incoming req see
system.mem_ctrls0.rdQLenPdf::26                     0                       # What read queue length does an incoming req see
system.mem_ctrls0.rdQLenPdf::27                     0                       # What read queue length does an incoming req see
system.mem_ctrls0.rdQLenPdf::28                     0                       # What read queue length does an incoming req see
system.mem_ctrls0.rdQLenPdf::29                     0                       # What read queue length does an incoming req see
system.mem_ctrls0.rdQLenPdf::30                     0                       # What read queue length does an incoming req see
system.mem_ctrls0.rdQLenPdf::31                     0                       # What read queue length does an incoming req see
system.mem_ctrls0.wrQLenPdf::0                      2                       # What write queue length does an incoming req see
system.mem_ctrls0.wrQLenPdf::1                      2                       # What write queue length does an incoming req see
system.mem_ctrls0.wrQLenPdf::2                      2                       # What write queue length does an incoming req see
system.mem_ctrls0.wrQLenPdf::3                      2                       # What write queue length does an incoming req see
system.mem_ctrls0.wrQLenPdf::4                      2                       # What write queue length does an incoming req see
system.mem_ctrls0.wrQLenPdf::5                      2                       # What write queue length does an incoming req see
system.mem_ctrls0.wrQLenPdf::6                      2                       # What write queue length does an incoming req see
system.mem_ctrls0.wrQLenPdf::7                      2                       # What write queue length does an incoming req see
system.mem_ctrls0.wrQLenPdf::8                      2                       # What write queue length does an incoming req see
system.mem_ctrls0.wrQLenPdf::9                      2                       # What write queue length does an incoming req see
system.mem_ctrls0.wrQLenPdf::10                     2                       # What write queue length does an incoming req see
system.mem_ctrls0.wrQLenPdf::11                     2                       # What write queue length does an incoming req see
system.mem_ctrls0.wrQLenPdf::12                     2                       # What write queue length does an incoming req see
system.mem_ctrls0.wrQLenPdf::13                     2                       # What write queue length does an incoming req see
system.mem_ctrls0.wrQLenPdf::14                     2                       # What write queue length does an incoming req see
system.mem_ctrls0.wrQLenPdf::15                   523                       # What write queue length does an incoming req see
system.mem_ctrls0.wrQLenPdf::16                   540                       # What write queue length does an incoming req see
system.mem_ctrls0.wrQLenPdf::17                   647                       # What write queue length does an incoming req see
system.mem_ctrls0.wrQLenPdf::18                   650                       # What write queue length does an incoming req see
system.mem_ctrls0.wrQLenPdf::19                   650                       # What write queue length does an incoming req see
system.mem_ctrls0.wrQLenPdf::20                   652                       # What write queue length does an incoming req see
system.mem_ctrls0.wrQLenPdf::21                   651                       # What write queue length does an incoming req see
system.mem_ctrls0.wrQLenPdf::22                   651                       # What write queue length does an incoming req see
system.mem_ctrls0.wrQLenPdf::23                   654                       # What write queue length does an incoming req see
system.mem_ctrls0.wrQLenPdf::24                   651                       # What write queue length does an incoming req see
system.mem_ctrls0.wrQLenPdf::25                   651                       # What write queue length does an incoming req see
system.mem_ctrls0.wrQLenPdf::26                   652                       # What write queue length does an incoming req see
system.mem_ctrls0.wrQLenPdf::27                   649                       # What write queue length does an incoming req see
system.mem_ctrls0.wrQLenPdf::28                   650                       # What write queue length does an incoming req see
system.mem_ctrls0.wrQLenPdf::29                   651                       # What write queue length does an incoming req see
system.mem_ctrls0.wrQLenPdf::30                   654                       # What write queue length does an incoming req see
system.mem_ctrls0.wrQLenPdf::31                   649                       # What write queue length does an incoming req see
system.mem_ctrls0.wrQLenPdf::32                   649                       # What write queue length does an incoming req see
system.mem_ctrls0.wrQLenPdf::33                     1                       # What write queue length does an incoming req see
system.mem_ctrls0.wrQLenPdf::34                     0                       # What write queue length does an incoming req see
system.mem_ctrls0.wrQLenPdf::35                     0                       # What write queue length does an incoming req see
system.mem_ctrls0.wrQLenPdf::36                     0                       # What write queue length does an incoming req see
system.mem_ctrls0.wrQLenPdf::37                     0                       # What write queue length does an incoming req see
system.mem_ctrls0.wrQLenPdf::38                     0                       # What write queue length does an incoming req see
system.mem_ctrls0.wrQLenPdf::39                     0                       # What write queue length does an incoming req see
system.mem_ctrls0.wrQLenPdf::40                     0                       # What write queue length does an incoming req see
system.mem_ctrls0.wrQLenPdf::41                     0                       # What write queue length does an incoming req see
system.mem_ctrls0.wrQLenPdf::42                     0                       # What write queue length does an incoming req see
system.mem_ctrls0.wrQLenPdf::43                     0                       # What write queue length does an incoming req see
system.mem_ctrls0.wrQLenPdf::44                     0                       # What write queue length does an incoming req see
system.mem_ctrls0.wrQLenPdf::45                     0                       # What write queue length does an incoming req see
system.mem_ctrls0.wrQLenPdf::46                     0                       # What write queue length does an incoming req see
system.mem_ctrls0.wrQLenPdf::47                     0                       # What write queue length does an incoming req see
system.mem_ctrls0.wrQLenPdf::48                     0                       # What write queue length does an incoming req see
system.mem_ctrls0.wrQLenPdf::49                     0                       # What write queue length does an incoming req see
system.mem_ctrls0.wrQLenPdf::50                     0                       # What write queue length does an incoming req see
system.mem_ctrls0.wrQLenPdf::51                     0                       # What write queue length does an incoming req see
system.mem_ctrls0.wrQLenPdf::52                     0                       # What write queue length does an incoming req see
system.mem_ctrls0.wrQLenPdf::53                     0                       # What write queue length does an incoming req see
system.mem_ctrls0.wrQLenPdf::54                     0                       # What write queue length does an incoming req see
system.mem_ctrls0.wrQLenPdf::55                     0                       # What write queue length does an incoming req see
system.mem_ctrls0.wrQLenPdf::56                     0                       # What write queue length does an incoming req see
system.mem_ctrls0.wrQLenPdf::57                     0                       # What write queue length does an incoming req see
system.mem_ctrls0.wrQLenPdf::58                     0                       # What write queue length does an incoming req see
system.mem_ctrls0.wrQLenPdf::59                     0                       # What write queue length does an incoming req see
system.mem_ctrls0.wrQLenPdf::60                     0                       # What write queue length does an incoming req see
system.mem_ctrls0.wrQLenPdf::61                     0                       # What write queue length does an incoming req see
system.mem_ctrls0.wrQLenPdf::62                     0                       # What write queue length does an incoming req see
system.mem_ctrls0.wrQLenPdf::63                     0                       # What write queue length does an incoming req see
system.mem_ctrls0.bytesPerActivate::samples        47876                       # Bytes accessed per row activation
system.mem_ctrls0.bytesPerActivate::mean   130.232434                       # Bytes accessed per row activation
system.mem_ctrls0.bytesPerActivate::gmean    95.096312                       # Bytes accessed per row activation
system.mem_ctrls0.bytesPerActivate::stdev   151.683006                       # Bytes accessed per row activation
system.mem_ctrls0.bytesPerActivate::0-127        32259     67.38%     67.38% # Bytes accessed per row activation
system.mem_ctrls0.bytesPerActivate::128-255         9533     19.91%     87.29% # Bytes accessed per row activation
system.mem_ctrls0.bytesPerActivate::256-383         2459      5.14%     92.43% # Bytes accessed per row activation
system.mem_ctrls0.bytesPerActivate::384-511         1497      3.13%     95.56% # Bytes accessed per row activation
system.mem_ctrls0.bytesPerActivate::512-639          835      1.74%     97.30% # Bytes accessed per row activation
system.mem_ctrls0.bytesPerActivate::640-767          558      1.17%     98.46% # Bytes accessed per row activation
system.mem_ctrls0.bytesPerActivate::768-895          255      0.53%     99.00% # Bytes accessed per row activation
system.mem_ctrls0.bytesPerActivate::896-1023          118      0.25%     99.24% # Bytes accessed per row activation
system.mem_ctrls0.bytesPerActivate::1024-1151          362      0.76%    100.00% # Bytes accessed per row activation
system.mem_ctrls0.bytesPerActivate::total        47876                       # Bytes accessed per row activation
system.mem_ctrls0.rdPerTurnAround::samples          650                       # Reads before turning the bus around for writes
system.mem_ctrls0.rdPerTurnAround::mean    132.204615                       # Reads before turning the bus around for writes
system.mem_ctrls0.rdPerTurnAround::gmean    79.409367                       # Reads before turning the bus around for writes
system.mem_ctrls0.rdPerTurnAround::stdev  1062.129623                       # Reads before turning the bus around for writes
system.mem_ctrls0.rdPerTurnAround::0-1023          648     99.69%     99.69% # Reads before turning the bus around for writes
system.mem_ctrls0.rdPerTurnAround::1024-2047            1      0.15%     99.85% # Reads before turning the bus around for writes
system.mem_ctrls0.rdPerTurnAround::26624-27647            1      0.15%    100.00% # Reads before turning the bus around for writes
system.mem_ctrls0.rdPerTurnAround::total          650                       # Reads before turning the bus around for writes
system.mem_ctrls0.wrPerTurnAround::samples          650                       # Writes before turning the bus around for reads
system.mem_ctrls0.wrPerTurnAround::mean     17.673846                       # Writes before turning the bus around for reads
system.mem_ctrls0.wrPerTurnAround::gmean    17.652525                       # Writes before turning the bus around for reads
system.mem_ctrls0.wrPerTurnAround::stdev     0.871440                       # Writes before turning the bus around for reads
system.mem_ctrls0.wrPerTurnAround::16             112     17.23%     17.23% # Writes before turning the bus around for reads
system.mem_ctrls0.wrPerTurnAround::17              15      2.31%     19.54% # Writes before turning the bus around for reads
system.mem_ctrls0.wrPerTurnAround::18             504     77.54%     97.08% # Writes before turning the bus around for reads
system.mem_ctrls0.wrPerTurnAround::19              18      2.77%     99.85% # Writes before turning the bus around for reads
system.mem_ctrls0.wrPerTurnAround::27               1      0.15%    100.00% # Writes before turning the bus around for reads
system.mem_ctrls0.wrPerTurnAround::total          650                       # Writes before turning the bus around for reads
system.mem_ctrls0.totQLat                  3726822734                       # Total ticks spent queuing
system.mem_ctrls0.totMemAccLat             5338085234                       # Total ticks spent from burst creation until serviced by the DRAM
system.mem_ctrls0.totBusLat                 429670000                       # Total ticks spent in databus transfers
system.mem_ctrls0.avgQLat                    43368.43                       # Average queueing delay per DRAM burst
system.mem_ctrls0.avgBusLat                   5000.00                       # Average bus latency per DRAM burst
system.mem_ctrls0.avgMemAccLat               62118.43                       # Average memory access latency per DRAM burst
system.mem_ctrls0.avgRdBW                        5.04                       # Average DRAM read bandwidth in MiByte/s
system.mem_ctrls0.avgWrBW                        0.67                       # Average achieved write bandwidth in MiByte/s
system.mem_ctrls0.avgRdBWSys                     5.04                       # Average system read bandwidth in MiByte/s
system.mem_ctrls0.avgWrBWSys                     0.68                       # Average system write bandwidth in MiByte/s
system.mem_ctrls0.peakBW                     12800.00                       # Theoretical peak bandwidth in MiByte/s
system.mem_ctrls0.busUtil                        0.04                       # Data bus utilization in percentage
system.mem_ctrls0.busUtilRead                    0.04                       # Data bus utilization in percentage for reads
system.mem_ctrls0.busUtilWrite                   0.01                       # Data bus utilization in percentage for writes
system.mem_ctrls0.avgRdQLen                      1.01                       # Average read queue length when enqueuing
system.mem_ctrls0.avgWrQLen                     17.57                       # Average write queue length when enqueuing
system.mem_ctrls0.readRowHits                   47852                       # Number of row buffer hits during reads
system.mem_ctrls0.writeRowHits                   1694                       # Number of row buffer hits during writes
system.mem_ctrls0.readRowHitRate                55.68                       # Row buffer hit rate for reads
system.mem_ctrls0.writeRowHitRate               14.72                       # Row buffer hit rate for writes
system.mem_ctrls0.avgGap                  11190907.75                       # Average gap between requests
system.mem_ctrls0.pageHitRate                   50.85                       # Row buffer hit rate, read and write combined
system.mem_ctrls0_0.actEnergy               172973640                       # Energy for activate commands per rank (pJ)
system.mem_ctrls0_0.preEnergy                91937670                       # Energy for precharge commands per rank (pJ)
system.mem_ctrls0_0.readEnergy              306013260                       # Energy for read commands per rank (pJ)
system.mem_ctrls0_0.writeEnergy              29305080                       # Energy for write commands per rank (pJ)
system.mem_ctrls0_0.refreshEnergy        7090487040.000002                       # Energy for refresh commands per rank (pJ)
system.mem_ctrls0_0.actBackEnergy          2358383550                       # Energy for active background per rank (pJ)
system.mem_ctrls0_0.preBackEnergy           342052320                       # Energy for precharge background per rank (pJ)
system.mem_ctrls0_0.actPowerDownEnergy    20189581830                       # Energy for active power-down per rank (pJ)
system.mem_ctrls0_0.prePowerDownEnergy     9259425120                       # Energy for precharge power-down per rank (pJ)
system.mem_ctrls0_0.selfRefreshEnergy    245090364480                       # Energy for self refresh per rank (pJ)
system.mem_ctrls0_0.totalEnergy          284932794660                       # Total energy per rank (pJ)
system.mem_ctrls0_0.averagePower           261.219667                       # Core power per rank (mW)
system.mem_ctrls0_0.totalIdleTime        1084706349216                       # Total Idle time Per DRAM Rank
system.mem_ctrls0_0.memoryStateTime::IDLE    613780217                       # Time in different power states
system.mem_ctrls0_0.memoryStateTime::REF   3012314000                       # Time in different power states
system.mem_ctrls0_0.memoryStateTime::SREF 1016322263202                       # Time in different power states
system.mem_ctrls0_0.memoryStateTime::PRE_PDN  24113061019                       # Time in different power states
system.mem_ctrls0_0.memoryStateTime::ACT   2441749519                       # Time in different power states
system.mem_ctrls0_0.memoryStateTime::ACT_PDN  44275322682                       # Time in different power states
system.mem_ctrls0_1.actEnergy               168861000                       # Energy for activate commands per rank (pJ)
system.mem_ctrls0_1.preEnergy                89751750                       # Energy for precharge commands per rank (pJ)
system.mem_ctrls0_1.readEnergy              307555500                       # Energy for read commands per rank (pJ)
system.mem_ctrls0_1.writeEnergy              30662280                       # Energy for write commands per rank (pJ)
system.mem_ctrls0_1.refreshEnergy        7125521520.000002                       # Energy for refresh commands per rank (pJ)
system.mem_ctrls0_1.actBackEnergy          2422582080                       # Energy for active background per rank (pJ)
system.mem_ctrls0_1.preBackEnergy           344556000                       # Energy for precharge background per rank (pJ)
system.mem_ctrls0_1.actPowerDownEnergy    20148287610                       # Energy for active power-down per rank (pJ)
system.mem_ctrls0_1.prePowerDownEnergy     9225620640                       # Energy for precharge power-down per rank (pJ)
system.mem_ctrls0_1.selfRefreshEnergy    245133651360                       # Energy for self refresh per rank (pJ)
system.mem_ctrls0_1.totalEnergy          284999111040                       # Total energy per rank (pJ)
system.mem_ctrls0_1.averagePower           261.280465                       # Core power per rank (mW)
system.mem_ctrls0_1.totalIdleTime        1084549653543                       # Total Idle time Per DRAM Rank
system.mem_ctrls0_1.memoryStateTime::IDLE    621124210                       # Time in different power states
system.mem_ctrls0_1.memoryStateTime::REF   3027500000                       # Time in different power states
system.mem_ctrls0_1.memoryStateTime::SREF 1016354024639                       # Time in different power states
system.mem_ctrls0_1.memoryStateTime::PRE_PDN  24025049426                       # Time in different power states
system.mem_ctrls0_1.memoryStateTime::ACT   2566003489                       # Time in different power states
system.mem_ctrls0_1.memoryStateTime::ACT_PDN  44184788875                       # Time in different power states
system.mem_ctrls1.pwrStateResidencyTicks::UNDEFINED 31102192651689                       # Cumulative time (in ticks) in various power states
system.mem_ctrls1.bytes_read::cpu.inst            192                       # Number of bytes read from this memory
system.mem_ctrls1.bytes_read::cpu.data            192                       # Number of bytes read from this memory
system.mem_ctrls1.bytes_read::switch_cpus.inst       138304                       # Number of bytes read from this memory
system.mem_ctrls1.bytes_read::switch_cpus.data      3635584                       # Number of bytes read from this memory
system.mem_ctrls1.bytes_read::switch_cpus_1.inst       134016                       # Number of bytes read from this memory
system.mem_ctrls1.bytes_read::switch_cpus_1.data      1607616                       # Number of bytes read from this memory
system.mem_ctrls1.bytes_read::total           5515904                       # Number of bytes read from this memory
system.mem_ctrls1.bytes_inst_read::cpu.inst          192                       # Number of instructions bytes read from this memory
system.mem_ctrls1.bytes_inst_read::switch_cpus.inst       138304                       # Number of instructions bytes read from this memory
system.mem_ctrls1.bytes_inst_read::switch_cpus_1.inst       134016                       # Number of instructions bytes read from this memory
system.mem_ctrls1.bytes_inst_read::total       272512                       # Number of instructions bytes read from this memory
system.mem_ctrls1.bytes_written::writebacks       731904                       # Number of bytes written to this memory
system.mem_ctrls1.bytes_written::total         731904                       # Number of bytes written to this memory
system.mem_ctrls1.num_reads::cpu.inst               3                       # Number of read requests responded to by this memory
system.mem_ctrls1.num_reads::cpu.data               3                       # Number of read requests responded to by this memory
system.mem_ctrls1.num_reads::switch_cpus.inst         2161                       # Number of read requests responded to by this memory
system.mem_ctrls1.num_reads::switch_cpus.data        56806                       # Number of read requests responded to by this memory
system.mem_ctrls1.num_reads::switch_cpus_1.inst         2094                       # Number of read requests responded to by this memory
system.mem_ctrls1.num_reads::switch_cpus_1.data        25119                       # Number of read requests responded to by this memory
system.mem_ctrls1.num_reads::total              86186                       # Number of read requests responded to by this memory
system.mem_ctrls1.num_writes::writebacks        11436                       # Number of write requests responded to by this memory
system.mem_ctrls1.num_writes::total             11436                       # Number of write requests responded to by this memory
system.mem_ctrls1.bw_read::cpu.inst               176                       # Total read bandwidth from this memory (bytes/s)
system.mem_ctrls1.bw_read::cpu.data               176                       # Total read bandwidth from this memory (bytes/s)
system.mem_ctrls1.bw_read::switch_cpus.inst       126794                       # Total read bandwidth from this memory (bytes/s)
system.mem_ctrls1.bw_read::switch_cpus.data      3333018                       # Total read bandwidth from this memory (bytes/s)
system.mem_ctrls1.bw_read::switch_cpus_1.inst       122863                       # Total read bandwidth from this memory (bytes/s)
system.mem_ctrls1.bw_read::switch_cpus_1.data      1473824                       # Total read bandwidth from this memory (bytes/s)
system.mem_ctrls1.bw_read::total              5056851                       # Total read bandwidth from this memory (bytes/s)
system.mem_ctrls1.bw_inst_read::cpu.inst          176                       # Instruction read bandwidth from this memory (bytes/s)
system.mem_ctrls1.bw_inst_read::switch_cpus.inst       126794                       # Instruction read bandwidth from this memory (bytes/s)
system.mem_ctrls1.bw_inst_read::switch_cpus_1.inst       122863                       # Instruction read bandwidth from this memory (bytes/s)
system.mem_ctrls1.bw_inst_read::total          249833                       # Instruction read bandwidth from this memory (bytes/s)
system.mem_ctrls1.bw_write::writebacks         670992                       # Write bandwidth from this memory (bytes/s)
system.mem_ctrls1.bw_write::total              670992                       # Write bandwidth from this memory (bytes/s)
system.mem_ctrls1.bw_total::writebacks         670992                       # Total bandwidth to/from this memory (bytes/s)
system.mem_ctrls1.bw_total::cpu.inst              176                       # Total bandwidth to/from this memory (bytes/s)
system.mem_ctrls1.bw_total::cpu.data              176                       # Total bandwidth to/from this memory (bytes/s)
system.mem_ctrls1.bw_total::switch_cpus.inst       126794                       # Total bandwidth to/from this memory (bytes/s)
system.mem_ctrls1.bw_total::switch_cpus.data      3333018                       # Total bandwidth to/from this memory (bytes/s)
system.mem_ctrls1.bw_total::switch_cpus_1.inst       122863                       # Total bandwidth to/from this memory (bytes/s)
system.mem_ctrls1.bw_total::switch_cpus_1.data      1473824                       # Total bandwidth to/from this memory (bytes/s)
system.mem_ctrls1.bw_total::total             5727843                       # Total bandwidth to/from this memory (bytes/s)
system.mem_ctrls1.readReqs                      86186                       # Number of read requests accepted
system.mem_ctrls1.writeReqs                     11436                       # Number of write requests accepted
system.mem_ctrls1.readBursts                    86186                       # Number of DRAM read bursts, including those serviced by the write queue
system.mem_ctrls1.writeBursts                   11436                       # Number of DRAM write bursts, including those merged in the write queue
system.mem_ctrls1.bytesReadDRAM               5514304                       # Total number of bytes read from DRAM
system.mem_ctrls1.bytesReadWrQ                   1600                       # Total number of bytes read from write queue
system.mem_ctrls1.bytesWritten                 730368                       # Total number of bytes written to DRAM
system.mem_ctrls1.bytesReadSys                5515904                       # Total read bytes from the system interface side
system.mem_ctrls1.bytesWrittenSys              731904                       # Total written bytes from the system interface side
system.mem_ctrls1.servicedByWrQ                    25                       # Number of DRAM read bursts serviced by the write queue
system.mem_ctrls1.mergedWrBursts                    0                       # Number of DRAM write bursts merged with an existing one
system.mem_ctrls1.neitherReadNorWriteReqs            0                       # Number of requests that are neither read nor write
system.mem_ctrls1.perBankRdBursts::0             5343                       # Per bank write bursts
system.mem_ctrls1.perBankRdBursts::1             5453                       # Per bank write bursts
system.mem_ctrls1.perBankRdBursts::2             5985                       # Per bank write bursts
system.mem_ctrls1.perBankRdBursts::3             5667                       # Per bank write bursts
system.mem_ctrls1.perBankRdBursts::4             5219                       # Per bank write bursts
system.mem_ctrls1.perBankRdBursts::5             5191                       # Per bank write bursts
system.mem_ctrls1.perBankRdBursts::6             4935                       # Per bank write bursts
system.mem_ctrls1.perBankRdBursts::7             4908                       # Per bank write bursts
system.mem_ctrls1.perBankRdBursts::8             5212                       # Per bank write bursts
system.mem_ctrls1.perBankRdBursts::9             5092                       # Per bank write bursts
system.mem_ctrls1.perBankRdBursts::10            5013                       # Per bank write bursts
system.mem_ctrls1.perBankRdBursts::11            4817                       # Per bank write bursts
system.mem_ctrls1.perBankRdBursts::12            6121                       # Per bank write bursts
system.mem_ctrls1.perBankRdBursts::13            5638                       # Per bank write bursts
system.mem_ctrls1.perBankRdBursts::14            5695                       # Per bank write bursts
system.mem_ctrls1.perBankRdBursts::15            5872                       # Per bank write bursts
system.mem_ctrls1.perBankWrBursts::0              713                       # Per bank write bursts
system.mem_ctrls1.perBankWrBursts::1              715                       # Per bank write bursts
system.mem_ctrls1.perBankWrBursts::2              811                       # Per bank write bursts
system.mem_ctrls1.perBankWrBursts::3              739                       # Per bank write bursts
system.mem_ctrls1.perBankWrBursts::4              690                       # Per bank write bursts
system.mem_ctrls1.perBankWrBursts::5              656                       # Per bank write bursts
system.mem_ctrls1.perBankWrBursts::6              531                       # Per bank write bursts
system.mem_ctrls1.perBankWrBursts::7              634                       # Per bank write bursts
system.mem_ctrls1.perBankWrBursts::8              714                       # Per bank write bursts
system.mem_ctrls1.perBankWrBursts::9              522                       # Per bank write bursts
system.mem_ctrls1.perBankWrBursts::10             604                       # Per bank write bursts
system.mem_ctrls1.perBankWrBursts::11             657                       # Per bank write bursts
system.mem_ctrls1.perBankWrBursts::12             920                       # Per bank write bursts
system.mem_ctrls1.perBankWrBursts::13             831                       # Per bank write bursts
system.mem_ctrls1.perBankWrBursts::14             853                       # Per bank write bursts
system.mem_ctrls1.perBankWrBursts::15             822                       # Per bank write bursts
system.mem_ctrls1.numRdRetry                        0                       # Number of times read queue was full causing retry
system.mem_ctrls1.numWrRetry                        0                       # Number of times write queue was full causing retry
system.mem_ctrls1.totGap                 1090767965508                       # Total gap between requests
system.mem_ctrls1.readPktSize::0                    0                       # Read request sizes (log2)
system.mem_ctrls1.readPktSize::1                    0                       # Read request sizes (log2)
system.mem_ctrls1.readPktSize::2                    0                       # Read request sizes (log2)
system.mem_ctrls1.readPktSize::3                    0                       # Read request sizes (log2)
system.mem_ctrls1.readPktSize::4                    0                       # Read request sizes (log2)
system.mem_ctrls1.readPktSize::5                    0                       # Read request sizes (log2)
system.mem_ctrls1.readPktSize::6                86186                       # Read request sizes (log2)
system.mem_ctrls1.writePktSize::0                   0                       # Write request sizes (log2)
system.mem_ctrls1.writePktSize::1                   0                       # Write request sizes (log2)
system.mem_ctrls1.writePktSize::2                   0                       # Write request sizes (log2)
system.mem_ctrls1.writePktSize::3                   0                       # Write request sizes (log2)
system.mem_ctrls1.writePktSize::4                   0                       # Write request sizes (log2)
system.mem_ctrls1.writePktSize::5                   0                       # Write request sizes (log2)
system.mem_ctrls1.writePktSize::6               11436                       # Write request sizes (log2)
system.mem_ctrls1.rdQLenPdf::0                  83684                       # What read queue length does an incoming req see
system.mem_ctrls1.rdQLenPdf::1                   2374                       # What read queue length does an incoming req see
system.mem_ctrls1.rdQLenPdf::2                     90                       # What read queue length does an incoming req see
system.mem_ctrls1.rdQLenPdf::3                     13                       # What read queue length does an incoming req see
system.mem_ctrls1.rdQLenPdf::4                      0                       # What read queue length does an incoming req see
system.mem_ctrls1.rdQLenPdf::5                      0                       # What read queue length does an incoming req see
system.mem_ctrls1.rdQLenPdf::6                      0                       # What read queue length does an incoming req see
system.mem_ctrls1.rdQLenPdf::7                      0                       # What read queue length does an incoming req see
system.mem_ctrls1.rdQLenPdf::8                      0                       # What read queue length does an incoming req see
system.mem_ctrls1.rdQLenPdf::9                      0                       # What read queue length does an incoming req see
system.mem_ctrls1.rdQLenPdf::10                     0                       # What read queue length does an incoming req see
system.mem_ctrls1.rdQLenPdf::11                     0                       # What read queue length does an incoming req see
system.mem_ctrls1.rdQLenPdf::12                     0                       # What read queue length does an incoming req see
system.mem_ctrls1.rdQLenPdf::13                     0                       # What read queue length does an incoming req see
system.mem_ctrls1.rdQLenPdf::14                     0                       # What read queue length does an incoming req see
system.mem_ctrls1.rdQLenPdf::15                     0                       # What read queue length does an incoming req see
system.mem_ctrls1.rdQLenPdf::16                     0                       # What read queue length does an incoming req see
system.mem_ctrls1.rdQLenPdf::17                     0                       # What read queue length does an incoming req see
system.mem_ctrls1.rdQLenPdf::18                     0                       # What read queue length does an incoming req see
system.mem_ctrls1.rdQLenPdf::19                     0                       # What read queue length does an incoming req see
system.mem_ctrls1.rdQLenPdf::20                     0                       # What read queue length does an incoming req see
system.mem_ctrls1.rdQLenPdf::21                     0                       # What read queue length does an incoming req see
system.mem_ctrls1.rdQLenPdf::22                     0                       # What read queue length does an incoming req see
system.mem_ctrls1.rdQLenPdf::23                     0                       # What read queue length does an incoming req see
system.mem_ctrls1.rdQLenPdf::24                     0                       # What read queue length does an incoming req see
system.mem_ctrls1.rdQLenPdf::25                     0                       # What read queue length does an incoming req see
system.mem_ctrls1.rdQLenPdf::26                     0                       # What read queue length does an incoming req see
system.mem_ctrls1.rdQLenPdf::27                     0                       # What read queue length does an incoming req see
system.mem_ctrls1.rdQLenPdf::28                     0                       # What read queue length does an incoming req see
system.mem_ctrls1.rdQLenPdf::29                     0                       # What read queue length does an incoming req see
system.mem_ctrls1.rdQLenPdf::30                     0                       # What read queue length does an incoming req see
system.mem_ctrls1.rdQLenPdf::31                     0                       # What read queue length does an incoming req see
system.mem_ctrls1.wrQLenPdf::0                      2                       # What write queue length does an incoming req see
system.mem_ctrls1.wrQLenPdf::1                      2                       # What write queue length does an incoming req see
system.mem_ctrls1.wrQLenPdf::2                      2                       # What write queue length does an incoming req see
system.mem_ctrls1.wrQLenPdf::3                      2                       # What write queue length does an incoming req see
system.mem_ctrls1.wrQLenPdf::4                      2                       # What write queue length does an incoming req see
system.mem_ctrls1.wrQLenPdf::5                      2                       # What write queue length does an incoming req see
system.mem_ctrls1.wrQLenPdf::6                      2                       # What write queue length does an incoming req see
system.mem_ctrls1.wrQLenPdf::7                      2                       # What write queue length does an incoming req see
system.mem_ctrls1.wrQLenPdf::8                      2                       # What write queue length does an incoming req see
system.mem_ctrls1.wrQLenPdf::9                      2                       # What write queue length does an incoming req see
system.mem_ctrls1.wrQLenPdf::10                     2                       # What write queue length does an incoming req see
system.mem_ctrls1.wrQLenPdf::11                     2                       # What write queue length does an incoming req see
system.mem_ctrls1.wrQLenPdf::12                     2                       # What write queue length does an incoming req see
system.mem_ctrls1.wrQLenPdf::13                     2                       # What write queue length does an incoming req see
system.mem_ctrls1.wrQLenPdf::14                     2                       # What write queue length does an incoming req see
system.mem_ctrls1.wrQLenPdf::15                   530                       # What write queue length does an incoming req see
system.mem_ctrls1.wrQLenPdf::16                   554                       # What write queue length does an incoming req see
system.mem_ctrls1.wrQLenPdf::17                   636                       # What write queue length does an incoming req see
system.mem_ctrls1.wrQLenPdf::18                   646                       # What write queue length does an incoming req see
system.mem_ctrls1.wrQLenPdf::19                   646                       # What write queue length does an incoming req see
system.mem_ctrls1.wrQLenPdf::20                   647                       # What write queue length does an incoming req see
system.mem_ctrls1.wrQLenPdf::21                   646                       # What write queue length does an incoming req see
system.mem_ctrls1.wrQLenPdf::22                   646                       # What write queue length does an incoming req see
system.mem_ctrls1.wrQLenPdf::23                   645                       # What write queue length does an incoming req see
system.mem_ctrls1.wrQLenPdf::24                   645                       # What write queue length does an incoming req see
system.mem_ctrls1.wrQLenPdf::25                   648                       # What write queue length does an incoming req see
system.mem_ctrls1.wrQLenPdf::26                   645                       # What write queue length does an incoming req see
system.mem_ctrls1.wrQLenPdf::27                   643                       # What write queue length does an incoming req see
system.mem_ctrls1.wrQLenPdf::28                   643                       # What write queue length does an incoming req see
system.mem_ctrls1.wrQLenPdf::29                   648                       # What write queue length does an incoming req see
system.mem_ctrls1.wrQLenPdf::30                   650                       # What write queue length does an incoming req see
system.mem_ctrls1.wrQLenPdf::31                   643                       # What write queue length does an incoming req see
system.mem_ctrls1.wrQLenPdf::32                   643                       # What write queue length does an incoming req see
system.mem_ctrls1.wrQLenPdf::33                     2                       # What write queue length does an incoming req see
system.mem_ctrls1.wrQLenPdf::34                     0                       # What write queue length does an incoming req see
system.mem_ctrls1.wrQLenPdf::35                     0                       # What write queue length does an incoming req see
system.mem_ctrls1.wrQLenPdf::36                     0                       # What write queue length does an incoming req see
system.mem_ctrls1.wrQLenPdf::37                     0                       # What write queue length does an incoming req see
system.mem_ctrls1.wrQLenPdf::38                     0                       # What write queue length does an incoming req see
system.mem_ctrls1.wrQLenPdf::39                     0                       # What write queue length does an incoming req see
system.mem_ctrls1.wrQLenPdf::40                     0                       # What write queue length does an incoming req see
system.mem_ctrls1.wrQLenPdf::41                     0                       # What write queue length does an incoming req see
system.mem_ctrls1.wrQLenPdf::42                     0                       # What write queue length does an incoming req see
system.mem_ctrls1.wrQLenPdf::43                     0                       # What write queue length does an incoming req see
system.mem_ctrls1.wrQLenPdf::44                     0                       # What write queue length does an incoming req see
system.mem_ctrls1.wrQLenPdf::45                     0                       # What write queue length does an incoming req see
system.mem_ctrls1.wrQLenPdf::46                     0                       # What write queue length does an incoming req see
system.mem_ctrls1.wrQLenPdf::47                     0                       # What write queue length does an incoming req see
system.mem_ctrls1.wrQLenPdf::48                     0                       # What write queue length does an incoming req see
system.mem_ctrls1.wrQLenPdf::49                     0                       # What write queue length does an incoming req see
system.mem_ctrls1.wrQLenPdf::50                     0                       # What write queue length does an incoming req see
system.mem_ctrls1.wrQLenPdf::51                     0                       # What write queue length does an incoming req see
system.mem_ctrls1.wrQLenPdf::52                     0                       # What write queue length does an incoming req see
system.mem_ctrls1.wrQLenPdf::53                     0                       # What write queue length does an incoming req see
system.mem_ctrls1.wrQLenPdf::54                     0                       # What write queue length does an incoming req see
system.mem_ctrls1.wrQLenPdf::55                     0                       # What write queue length does an incoming req see
system.mem_ctrls1.wrQLenPdf::56                     0                       # What write queue length does an incoming req see
system.mem_ctrls1.wrQLenPdf::57                     0                       # What write queue length does an incoming req see
system.mem_ctrls1.wrQLenPdf::58                     0                       # What write queue length does an incoming req see
system.mem_ctrls1.wrQLenPdf::59                     0                       # What write queue length does an incoming req see
system.mem_ctrls1.wrQLenPdf::60                     0                       # What write queue length does an incoming req see
system.mem_ctrls1.wrQLenPdf::61                     0                       # What write queue length does an incoming req see
system.mem_ctrls1.wrQLenPdf::62                     0                       # What write queue length does an incoming req see
system.mem_ctrls1.wrQLenPdf::63                     0                       # What write queue length does an incoming req see
system.mem_ctrls1.bytesPerActivate::samples        48045                       # Bytes accessed per row activation
system.mem_ctrls1.bytesPerActivate::mean   129.975481                       # Bytes accessed per row activation
system.mem_ctrls1.bytesPerActivate::gmean    94.949648                       # Bytes accessed per row activation
system.mem_ctrls1.bytesPerActivate::stdev   151.496339                       # Bytes accessed per row activation
system.mem_ctrls1.bytesPerActivate::0-127        32435     67.51%     67.51% # Bytes accessed per row activation
system.mem_ctrls1.bytesPerActivate::128-255         9552     19.88%     87.39% # Bytes accessed per row activation
system.mem_ctrls1.bytesPerActivate::256-383         2448      5.10%     92.49% # Bytes accessed per row activation
system.mem_ctrls1.bytesPerActivate::384-511         1462      3.04%     95.53% # Bytes accessed per row activation
system.mem_ctrls1.bytesPerActivate::512-639          872      1.81%     97.34% # Bytes accessed per row activation
system.mem_ctrls1.bytesPerActivate::640-767          536      1.12%     98.46% # Bytes accessed per row activation
system.mem_ctrls1.bytesPerActivate::768-895          253      0.53%     98.99% # Bytes accessed per row activation
system.mem_ctrls1.bytesPerActivate::896-1023          131      0.27%     99.26% # Bytes accessed per row activation
system.mem_ctrls1.bytesPerActivate::1024-1151          356      0.74%    100.00% # Bytes accessed per row activation
system.mem_ctrls1.bytesPerActivate::total        48045                       # Bytes accessed per row activation
system.mem_ctrls1.rdPerTurnAround::samples          644                       # Reads before turning the bus around for writes
system.mem_ctrls1.rdPerTurnAround::mean    133.754658                       # Reads before turning the bus around for writes
system.mem_ctrls1.rdPerTurnAround::gmean    80.067247                       # Reads before turning the bus around for writes
system.mem_ctrls1.rdPerTurnAround::stdev  1090.373514                       # Reads before turning the bus around for writes
system.mem_ctrls1.rdPerTurnAround::0-1023          643     99.84%     99.84% # Reads before turning the bus around for writes
system.mem_ctrls1.rdPerTurnAround::27648-28671            1      0.16%    100.00% # Reads before turning the bus around for writes
system.mem_ctrls1.rdPerTurnAround::total          644                       # Reads before turning the bus around for writes
system.mem_ctrls1.wrPerTurnAround::samples          644                       # Writes before turning the bus around for reads
system.mem_ctrls1.wrPerTurnAround::mean     17.720497                       # Writes before turning the bus around for reads
system.mem_ctrls1.wrPerTurnAround::gmean    17.703646                       # Writes before turning the bus around for reads
system.mem_ctrls1.wrPerTurnAround::stdev     0.758251                       # Writes before turning the bus around for reads
system.mem_ctrls1.wrPerTurnAround::16              91     14.13%     14.13% # Writes before turning the bus around for reads
system.mem_ctrls1.wrPerTurnAround::17              21      3.26%     17.39% # Writes before turning the bus around for reads
system.mem_ctrls1.wrPerTurnAround::18             513     79.66%     97.05% # Writes before turning the bus around for reads
system.mem_ctrls1.wrPerTurnAround::19              17      2.64%     99.69% # Writes before turning the bus around for reads
system.mem_ctrls1.wrPerTurnAround::21               2      0.31%    100.00% # Writes before turning the bus around for reads
system.mem_ctrls1.wrPerTurnAround::total          644                       # Writes before turning the bus around for reads
system.mem_ctrls1.totQLat                  3718933885                       # Total ticks spent queuing
system.mem_ctrls1.totMemAccLat             5334452635                       # Total ticks spent from burst creation until serviced by the DRAM
system.mem_ctrls1.totBusLat                 430805000                       # Total ticks spent in databus transfers
system.mem_ctrls1.avgQLat                    43162.61                       # Average queueing delay per DRAM burst
system.mem_ctrls1.avgBusLat                   5000.00                       # Average bus latency per DRAM burst
system.mem_ctrls1.avgMemAccLat               61912.61                       # Average memory access latency per DRAM burst
system.mem_ctrls1.avgRdBW                        5.06                       # Average DRAM read bandwidth in MiByte/s
system.mem_ctrls1.avgWrBW                        0.67                       # Average achieved write bandwidth in MiByte/s
system.mem_ctrls1.avgRdBWSys                     5.06                       # Average system read bandwidth in MiByte/s
system.mem_ctrls1.avgWrBWSys                     0.67                       # Average system write bandwidth in MiByte/s
system.mem_ctrls1.peakBW                     12800.00                       # Theoretical peak bandwidth in MiByte/s
system.mem_ctrls1.busUtil                        0.04                       # Data bus utilization in percentage
system.mem_ctrls1.busUtilRead                    0.04                       # Data bus utilization in percentage for reads
system.mem_ctrls1.busUtilWrite                   0.01                       # Data bus utilization in percentage for writes
system.mem_ctrls1.avgRdQLen                      1.01                       # Average read queue length when enqueuing
system.mem_ctrls1.avgWrQLen                     17.96                       # Average write queue length when enqueuing
system.mem_ctrls1.readRowHits                   47866                       # Number of row buffer hits during reads
system.mem_ctrls1.writeRowHits                   1662                       # Number of row buffer hits during writes
system.mem_ctrls1.readRowHitRate                55.55                       # Row buffer hit rate for reads
system.mem_ctrls1.writeRowHitRate               14.53                       # Row buffer hit rate for writes
system.mem_ctrls1.avgGap                  11173382.70                       # Average gap between requests
system.mem_ctrls1.pageHitRate                   50.75                       # Row buffer hit rate, read and write combined
system.mem_ctrls1_0.actEnergy               171866940                       # Energy for activate commands per rank (pJ)
system.mem_ctrls1_0.preEnergy                91349445                       # Energy for precharge commands per rank (pJ)
system.mem_ctrls1_0.readEnergy              304885140                       # Energy for read commands per rank (pJ)
system.mem_ctrls1_0.writeEnergy              28652580                       # Energy for write commands per rank (pJ)
system.mem_ctrls1_0.refreshEnergy        7068974640.000002                       # Energy for refresh commands per rank (pJ)
system.mem_ctrls1_0.actBackEnergy          2400459240                       # Energy for active background per rank (pJ)
system.mem_ctrls1_0.preBackEnergy           339449760                       # Energy for precharge background per rank (pJ)
system.mem_ctrls1_0.actPowerDownEnergy    20066425920                       # Energy for active power-down per rank (pJ)
system.mem_ctrls1_0.prePowerDownEnergy     9230593920                       # Energy for precharge power-down per rank (pJ)
system.mem_ctrls1_0.selfRefreshEnergy    245151463380                       # Energy for self refresh per rank (pJ)
system.mem_ctrls1_0.totalEnergy          284856141585                       # Total energy per rank (pJ)
system.mem_ctrls1_0.averagePower           261.149393                       # Core power per rank (mW)
system.mem_ctrls1_0.totalIdleTime        1084623881914                       # Total Idle time Per DRAM Rank
system.mem_ctrls1_0.memoryStateTime::IDLE    607034674                       # Time in different power states
system.mem_ctrls1_0.memoryStateTime::REF   3003148000                       # Time in different power states
system.mem_ctrls1_0.memoryStateTime::SREF 1016582565499                       # Time in different power states
system.mem_ctrls1_0.memoryStateTime::PRE_PDN  24038046218                       # Time in different power states
system.mem_ctrls1_0.memoryStateTime::ACT   2542412411                       # Time in different power states
system.mem_ctrls1_0.memoryStateTime::ACT_PDN  44005283837                       # Time in different power states
system.mem_ctrls1_1.actEnergy               171174360                       # Energy for activate commands per rank (pJ)
system.mem_ctrls1_1.preEnergy                90981330                       # Energy for precharge commands per rank (pJ)
system.mem_ctrls1_1.readEnergy              310304400                       # Energy for read commands per rank (pJ)
system.mem_ctrls1_1.writeEnergy              30918060                       # Energy for write commands per rank (pJ)
system.mem_ctrls1_1.refreshEnergy        7141502160.000002                       # Energy for refresh commands per rank (pJ)
system.mem_ctrls1_1.actBackEnergy          2420072370                       # Energy for active background per rank (pJ)
system.mem_ctrls1_1.preBackEnergy           343163040                       # Energy for precharge background per rank (pJ)
system.mem_ctrls1_1.actPowerDownEnergy    20288066430                       # Energy for active power-down per rank (pJ)
system.mem_ctrls1_1.prePowerDownEnergy     9244576800                       # Energy for precharge power-down per rank (pJ)
system.mem_ctrls1_1.selfRefreshEnergy    245039470275                       # Energy for self refresh per rank (pJ)
system.mem_ctrls1_1.totalEnergy          285082613085                       # Total energy per rank (pJ)
system.mem_ctrls1_1.averagePower           261.357017                       # Core power per rank (mW)
system.mem_ctrls1_1.totalIdleTime        1084555387399                       # Total Idle time Per DRAM Rank
system.mem_ctrls1_1.memoryStateTime::IDLE    615936872                       # Time in different power states
system.mem_ctrls1_1.memoryStateTime::REF   3034122000                       # Time in different power states
system.mem_ctrls1_1.memoryStateTime::SREF 1016006577139                       # Time in different power states
system.mem_ctrls1_1.memoryStateTime::PRE_PDN  24074296489                       # Time in different power states
system.mem_ctrls1_1.memoryStateTime::ACT   2555959893                       # Time in different power states
system.mem_ctrls1_1.memoryStateTime::ACT_PDN  44491598246                       # Time in different power states
system.pwrStateResidencyTicks::UNDEFINED 31102192651689                       # Cumulative time (in ticks) in various power states
system.cpu.branchPred.lookups                       6                       # Number of BP lookups
system.cpu.branchPred.condPredicted                 3                       # Number of conditional branches predicted
system.cpu.branchPred.condIncorrect                 3                       # Number of conditional branches incorrect
system.cpu.branchPred.BTBLookups                    3                       # Number of BTB lookups
system.cpu.branchPred.BTBHits                       0                       # Number of BTB hits
system.cpu.branchPred.BTBCorrect                    0                       # Number of correct BTB predictions (this stat may not work properly.
system.cpu.branchPred.BTBHitPct              0.000000                       # BTB Hit Percentage
system.cpu.branchPred.usedRAS                       0                       # Number of times the RAS was used to get a target.
system.cpu.branchPred.RASInCorrect                  0                       # Number of incorrect RAS predictions.
system.cpu.branchPred.indirectLookups               1                       # Number of indirect predictor lookups.
system.cpu.branchPred.indirectHits                  0                       # Number of indirect target hits.
system.cpu.branchPred.indirectMisses                1                       # Number of indirect misses.
system.cpu.branchPredindirectMispredicted            1                       # Number of mispredicted indirect branches.
system.cpu_voltage_domain.voltage                   1                       # Voltage in Volts
system.cpu_clk_domain.clock                       333                       # Clock period in ticks
system.cpu.dtb.fetch_hits                           0                       # ITB hits
system.cpu.dtb.fetch_misses                         0                       # ITB misses
system.cpu.dtb.fetch_acv                            0                       # ITB acv
system.cpu.dtb.fetch_accesses                       0                       # ITB accesses
system.cpu.dtb.read_hits                            5                       # DTB read hits
system.cpu.dtb.read_misses                          0                       # DTB read misses
system.cpu.dtb.read_acv                             0                       # DTB read access violations
system.cpu.dtb.read_accesses                        5                       # DTB read accesses
system.cpu.dtb.write_hits                           0                       # DTB write hits
system.cpu.dtb.write_misses                         0                       # DTB write misses
system.cpu.dtb.write_acv                            0                       # DTB write access violations
system.cpu.dtb.write_accesses                       0                       # DTB write accesses
system.cpu.dtb.data_hits                            5                       # DTB hits
system.cpu.dtb.data_misses                          0                       # DTB misses
system.cpu.dtb.data_acv                             0                       # DTB access violations
system.cpu.dtb.data_accesses                        5                       # DTB accesses
system.cpu.itb.fetch_hits                           7                       # ITB hits
system.cpu.itb.fetch_misses                         0                       # ITB misses
system.cpu.itb.fetch_acv                            0                       # ITB acv
system.cpu.itb.fetch_accesses                       7                       # ITB accesses
system.cpu.itb.read_hits                            0                       # DTB read hits
system.cpu.itb.read_misses                          0                       # DTB read misses
system.cpu.itb.read_acv                             0                       # DTB read access violations
system.cpu.itb.read_accesses                        0                       # DTB read accesses
system.cpu.itb.write_hits                           0                       # DTB write hits
system.cpu.itb.write_misses                         0                       # DTB write misses
system.cpu.itb.write_acv                            0                       # DTB write access violations
system.cpu.itb.write_accesses                       0                       # DTB write accesses
system.cpu.itb.data_hits                            0                       # DTB hits
system.cpu.itb.data_misses                          0                       # DTB misses
system.cpu.itb.data_acv                             0                       # DTB access violations
system.cpu.itb.data_accesses                        0                       # DTB accesses
system.cpu.workload.num_syscalls                    9                       # Number of system calls
system.cpu.pwrStateResidencyTicks::ON    1090778490639                       # Cumulative time (in ticks) in various power states
system.cpu.numCycles                             1010                       # number of cpu cycles simulated
system.cpu.numWorkItemsStarted                      0                       # number of work items this cpu started
system.cpu.numWorkItemsCompleted                    0                       # number of work items this cpu completed
system.cpu.fetch.icacheStallCycles                 50                       # Number of cycles fetch is stalled on an Icache miss
system.cpu.fetch.Insts                             34                       # Number of instructions fetch has processed
system.cpu.fetch.Branches                           6                       # Number of branches that fetch encountered
system.cpu.fetch.Cycles                             5                       # Number of cycles fetch has run and was not squashing or blocked
system.cpu.fetch.SquashCycles                       9                       # Number of cycles fetch has spent squashing
system.cpu.fetch.PendingDrainCycles                 6                       # Number of cycles fetch has spent waiting on pipes to drain
system.cpu.fetch.CacheLines                         7                       # Number of cache lines fetched
system.cpu.fetch.IcacheSquashes                     4                       # Number of outstanding Icache misses that were squashed
system.cpu.fetch.rateDist::samples                 65                       # Number of instructions fetched each cycle (Total)
system.cpu.fetch.rateDist::mean              0.523077                       # Number of instructions fetched each cycle (Total)
system.cpu.fetch.rateDist::stdev             1.880057                       # Number of instructions fetched each cycle (Total)
system.cpu.fetch.rateDist::underflows               0      0.00%      0.00% # Number of instructions fetched each cycle (Total)
system.cpu.fetch.rateDist::0                       60     92.31%     92.31% # Number of instructions fetched each cycle (Total)
system.cpu.fetch.rateDist::1                        0      0.00%     92.31% # Number of instructions fetched each cycle (Total)
system.cpu.fetch.rateDist::2                        0      0.00%     92.31% # Number of instructions fetched each cycle (Total)
system.cpu.fetch.rateDist::3                        0      0.00%     92.31% # Number of instructions fetched each cycle (Total)
system.cpu.fetch.rateDist::4                        1      1.54%     93.85% # Number of instructions fetched each cycle (Total)
system.cpu.fetch.rateDist::5                        0      0.00%     93.85% # Number of instructions fetched each cycle (Total)
system.cpu.fetch.rateDist::6                        1      1.54%     95.38% # Number of instructions fetched each cycle (Total)
system.cpu.fetch.rateDist::7                        0      0.00%     95.38% # Number of instructions fetched each cycle (Total)
system.cpu.fetch.rateDist::8                        3      4.62%    100.00% # Number of instructions fetched each cycle (Total)
system.cpu.fetch.rateDist::overflows                0      0.00%    100.00% # Number of instructions fetched each cycle (Total)
system.cpu.fetch.rateDist::min_value                0                       # Number of instructions fetched each cycle (Total)
system.cpu.fetch.rateDist::max_value                8                       # Number of instructions fetched each cycle (Total)
system.cpu.fetch.rateDist::total                   65                       # Number of instructions fetched each cycle (Total)
[...]
system.switch_cpus_1.iq.int_inst_queue_wakeup_accesses    235714097                       # Number of integer instruction queue wakeup accesses
system.switch_cpus_1.iq.fp_inst_queue_reads       480548                       # Number of floating instruction queue reads
system.switch_cpus_1.iq.fp_inst_queue_writes       344281                       # Number of floating instruction queue writes
system.switch_cpus_1.iq.fp_inst_queue_wakeup_accesses       212670                       # Number of floating instruction queue wakeup accesses
system.switch_cpus_1.iq.int_alu_accesses    249180614                       # Number of integer alu accesses
system.switch_cpus_1.iq.fp_alu_accesses        246848                       # Number of floating point alu accesses
system.switch_cpus_1.iew.lsq.thread0.forwLoads      8589635                       # Number of loads that had data forwarded from stores
system.switch_cpus_1.iew.lsq.thread0.invAddrLoads            0                       # Number of loads ignored due to an invalid address
system.switch_cpus_1.iew.lsq.thread0.squashedLoads     24803549                       # Number of loads squashed
system.switch_cpus_1.iew.lsq.thread0.ignoredResponses        41916                       # Number of memory responses ignored because the instruction is squashed
system.switch_cpus_1.iew.lsq.thread0.memOrderViolation        82733                       # Number of memory ordering violations
system.switch_cpus_1.iew.lsq.thread0.squashedStores     10641083                       # Number of stores squashed
system.switch_cpus_1.iew.lsq.thread0.invAddrSwpfs            0                       # Number of software prefetches ignored due to an invalid address
system.switch_cpus_1.iew.lsq.thread0.blockedLoads            0                       # Number of blocked loads due to partial load-store forwarding
system.switch_cpus_1.iew.lsq.thread0.rescheduledLoads           48                       # Number of loads that were rescheduled
system.switch_cpus_1.iew.lsq.thread0.cacheBlocked       161058                       # Number of times an access to memory failed due to the cache being blocked
system.switch_cpus_1.iew.iewIdleCycles              0                       # Number of cycles IEW is idle
system.switch_cpus_1.iew.iewSquashCycles      2087457                       # Number of cycles IEW is squashing
system.switch_cpus_1.iew.iewBlockCycles      20770445                       # Number of cycles IEW is blocking
system.switch_cpus_1.iew.iewUnblockCycles     15688723                       # Number of cycles IEW is unblocking
system.switch_cpus_1.iew.iewDispatchedInsts    281088257                       # Number of instructions dispatched to IQ
system.switch_cpus_1.iew.iewDispSquashedInsts       644253                       # Number of squashed instructions skipped by dispatch
system.switch_cpus_1.iew.iewDispLoadInsts     89911077                       # Number of dispatched load instructions
system.switch_cpus_1.iew.iewDispStoreInsts     38813044                       # Number of dispatched store instructions
system.switch_cpus_1.iew.iewDispNonSpecInsts        84742                       # Number of dispatched non-speculative instructions
system.switch_cpus_1.iew.iewIQFullEvents       349759                       # Number of times the IQ has become full, causing a stall
system.switch_cpus_1.iew.iewLSQFullEvents     15359930                       # Number of times the LSQ has become full, causing a stall
system.switch_cpus_1.iew.memOrderViolationEvents        82733                       # Number of memory order violations
system.switch_cpus_1.iew.predictedTakenIncorrect       941754                       # Number of branches that were predicted taken incorrectly
system.switch_cpus_1.iew.predictedNotTakenIncorrect       733926                       # Number of branches that were predicted not taken incorrectly
system.switch_cpus_1.iew.branchMispredicts      1675680                       # Number of branch mispredicts detected at execute
system.switch_cpus_1.iew.iewExecutedInsts    239287662                       # Number of executed instructions
system.switch_cpus_1.iew.iewExecLoadInsts     78322862                       # Number of load instructions executed
system.switch_cpus_1.iew.iewExecSquashedInsts      2924572                       # Number of squashed instructions skipped in execute
system.switch_cpus_1.iew.exec_swp                   0                       # number of swp insts executed
system.switch_cpus_1.iew.exec_nop             6955892                       # number of nop insts executed
system.switch_cpus_1.iew.exec_refs          112508176                       # number of memory reference insts executed
system.switch_cpus_1.iew.exec_branches       39862996                       # Number of branches executed
system.switch_cpus_1.iew.exec_stores         34185314                       # Number of stores executed
system.switch_cpus_1.iew.exec_rate           1.080328                       # Inst execution rate
system.switch_cpus_1.iew.wb_sent            237841430                       # cumulative count of insts sent to commit
system.switch_cpus_1.iew.wb_count           235926767                       # cumulative count of insts written-back
system.switch_cpus_1.iew.wb_producers       131515826                       # num instructions producing a value
system.switch_cpus_1.iew.wb_consumers       175100421                       # num instructions consuming a value
system.switch_cpus_1.iew.wb_rate             1.065155                       # insts written-back per cycle
system.switch_cpus_1.iew.wb_fanout           0.751088                       # average fanout of values written-back
system.switch_cpus_1.commit.commitSquashedInsts     68266128                       # The number of squashed insts skipped by commit
system.switch_cpus_1.commit.commitNonSpecStalls       131982                       # The number of times commit has been forced to stall to communicate backwards
system.switch_cpus_1.commit.branchMispredicts      1467053                       # The number of times a branch was mispredicted
system.switch_cpus_1.commit.committed_per_cycle::samples    189032391                       # Number of insts commited each cycle
system.switch_cpus_1.commit.committed_per_cycle::mean     1.083254                       # Number of insts commited each cycle
system.switch_cpus_1.commit.committed_per_cycle::stdev     2.191723                       # Number of insts commited each cycle
system.switch_cpus_1.commit.committed_per_cycle::underflows            0      0.00%      0.00% # Number of insts commited each cycle
system.switch_cpus_1.commit.committed_per_cycle::0    127659724     67.53%     67.53% # Number of insts commited each cycle
system.switch_cpus_1.commit.committed_per_cycle::1     25474022     13.48%     81.01% # Number of insts commited each cycle
system.switch_cpus_1.commit.committed_per_cycle::2      9015533      4.77%     85.78% # Number of insts commited each cycle
system.switch_cpus_1.commit.committed_per_cycle::3      4140976      2.19%     87.97% # Number of insts commited each cycle
system.switch_cpus_1.commit.committed_per_cycle::4      3877775      2.05%     90.02% # Number of insts commited each cycle
system.switch_cpus_1.commit.committed_per_cycle::5      3303300      1.75%     91.77% # Number of insts commited each cycle
system.switch_cpus_1.commit.committed_per_cycle::6      2817063      1.49%     93.26% # Number of insts commited each cycle
system.switch_cpus_1.commit.committed_per_cycle::7      2039933      1.08%     94.34% # Number of insts commited each cycle
system.switch_cpus_1.commit.committed_per_cycle::8     10704065      5.66%    100.00% # Number of insts commited each cycle
system.switch_cpus_1.commit.committed_per_cycle::overflows            0      0.00%    100.00% # Number of insts commited each cycle
system.switch_cpus_1.commit.committed_per_cycle::min_value            0                       # Number of insts commited each cycle
system.switch_cpus_1.commit.committed_per_cycle::max_value            8                       # Number of insts commited each cycle
system.switch_cpus_1.commit.committed_per_cycle::total    189032391                       # Number of insts commited each cycle
system.switch_cpus_1.commit.committedInsts    204770045                       # Number of instructions committed
system.switch_cpus_1.commit.committedOps    204770045                       # Number of ops (including micro ops) committed
system.switch_cpus_1.commit.swp_count               0                       # Number of s/w prefetches committed
system.switch_cpus_1.commit.refs             93279484                       # Number of memory references committed
system.switch_cpus_1.commit.loads            65107527                       # Number of loads committed
system.switch_cpus_1.commit.membars             65988                       # Number of memory barriers committed
system.switch_cpus_1.commit.branches         33714070                       # Number of branches committed
system.switch_cpus_1.commit.fp_insts           159557                       # Number of committed floating point instructions.
system.switch_cpus_1.commit.int_insts       196778837                       # Number of committed integer instructions.
system.switch_cpus_1.commit.function_calls      2336737                       # Number of function calls committed.
system.switch_cpus_1.commit.op_class_0::No_OpClass      4770592      2.33%      2.33% # Class of committed instruction
system.switch_cpus_1.commit.op_class_0::IntAlu    106615487     52.07%     54.40% # Class of committed instruction
system.switch_cpus_1.commit.op_class_0::IntMult         2354      0.00%     54.40% # Class of committed instruction
system.switch_cpus_1.commit.op_class_0::IntDiv            0      0.00%     54.40% # Class of committed instruction
system.switch_cpus_1.commit.op_class_0::FloatAdd        29677      0.01%     54.41% # Class of committed instruction
system.switch_cpus_1.commit.op_class_0::FloatCmp         2802      0.00%     54.41% # Class of committed instruction
system.switch_cpus_1.commit.op_class_0::FloatCvt         2757      0.00%     54.41% # Class of committed instruction
system.switch_cpus_1.commit.op_class_0::FloatMult          480      0.00%     54.41% # Class of committed instruction
system.switch_cpus_1.commit.op_class_0::FloatMultAcc            0      0.00%     54.41% # Class of committed instruction
system.switch_cpus_1.commit.op_class_0::FloatDiv          424      0.00%     54.41% # Class of committed instruction
system.switch_cpus_1.commit.op_class_0::FloatMisc            0      0.00%     54.41% # Class of committed instruction
system.switch_cpus_1.commit.op_class_0::FloatSqrt            0      0.00%     54.41% # Class of committed instruction
system.switch_cpus_1.commit.op_class_0::SimdAdd            0      0.00%     54.41% # Class of committed instruction
system.switch_cpus_1.commit.op_class_0::SimdAddAcc            0      0.00%     54.41% # Class of committed instruction
system.switch_cpus_1.commit.op_class_0::SimdAlu            0      0.00%     54.41% # Class of committed instruction
system.switch_cpus_1.commit.op_class_0::SimdCmp            0      0.00%     54.41% # Class of committed instruction
system.switch_cpus_1.commit.op_class_0::SimdCvt            0      0.00%     54.41% # Class of committed instruction
system.switch_cpus_1.commit.op_class_0::SimdMisc            0      0.00%     54.41% # Class of committed instruction
system.switch_cpus_1.commit.op_class_0::SimdMult            0      0.00%     54.41% # Class of committed instruction
system.switch_cpus_1.commit.op_class_0::SimdMultAcc            0      0.00%     54.41% # Class of committed instruction
system.switch_cpus_1.commit.op_class_0::SimdShift            0      0.00%     54.41% # Class of committed instruction
system.switch_cpus_1.commit.op_class_0::SimdShiftAcc            0      0.00%     54.41% # Class of committed instruction
system.switch_cpus_1.commit.op_class_0::SimdSqrt            0      0.00%     54.41% # Class of committed instruction
system.switch_cpus_1.commit.op_class_0::SimdFloatAdd            0      0.00%     54.41% # Class of committed instruction
system.switch_cpus_1.commit.op_class_0::SimdFloatAlu            0      0.00%     54.41% # Class of committed instruction
system.switch_cpus_1.commit.op_class_0::SimdFloatCmp            0      0.00%     54.41% # Class of committed instruction
system.switch_cpus_1.commit.op_class_0::SimdFloatCvt            0      0.00%     54.41% # Class of committed instruction
system.switch_cpus_1.commit.op_class_0::SimdFloatDiv            0      0.00%     54.41% # Class of committed instruction
system.switch_cpus_1.commit.op_class_0::SimdFloatMisc            0      0.00%     54.41% # Class of committed instruction
system.switch_cpus_1.commit.op_class_0::SimdFloatMult            0      0.00%     54.41% # Class of committed instruction
system.switch_cpus_1.commit.op_class_0::SimdFloatMultAcc            0      0.00%     54.41% # Class of committed instruction
system.switch_cpus_1.commit.op_class_0::SimdFloatSqrt            0      0.00%     54.41% # Class of committed instruction
system.switch_cpus_1.commit.op_class_0::MemRead     65122112     31.80%     86.22% # Class of committed instruction
system.switch_cpus_1.commit.op_class_0::MemWrite     28099943     13.72%     99.94% # Class of committed instruction
system.switch_cpus_1.commit.op_class_0::FloatMemRead        51403      0.03%     99.96% # Class of committed instruction
system.switch_cpus_1.commit.op_class_0::FloatMemWrite        72014      0.04%    100.00% # Class of committed instruction
system.switch_cpus_1.commit.op_class_0::IprAccess            0      0.00%    100.00% # Class of committed instruction
system.switch_cpus_1.commit.op_class_0::InstPrefetch            0      0.00%    100.00% # Class of committed instruction
system.switch_cpus_1.commit.op_class_0::total    204770045                       # Class of committed instruction
system.switch_cpus_1.commit.bw_lim_events     10704065                       # number cycles where commit BW limit reached
system.switch_cpus_1.rob.rob_reads          444138670                       # The number of ROB reads
system.switch_cpus_1.rob.rob_writes         556098109                       # The number of ROB writes
system.switch_cpus_1.timesIdled               1320689                       # Number of times that the entire CPU went into an idle state and unscheduled itself
system.switch_cpus_1.idleCycles              22459981                       # Total number of cycles that the CPU has spent unscheduled due to idling
system.switch_cpus_1.committedInsts         200000002                       # Number of Instructions Simulated
system.switch_cpus_1.committedOps           200000002                       # Number of Ops (including micro ops) Simulated
system.switch_cpus_1.cpi                     1.107477                       # CPI: Cycles Per Instruction
system.switch_cpus_1.cpi_total               1.107477                       # CPI: Total CPI of All Threads
system.switch_cpus_1.ipc                     0.902954                       # IPC: Instructions Per Cycle
system.switch_cpus_1.ipc_total               0.902954                       # IPC: Total IPC of All Threads
system.switch_cpus_1.int_regfile_reads      304348237                       # number of integer regfile reads
system.switch_cpus_1.int_regfile_writes     165740370                       # number of integer regfile writes
system.switch_cpus_1.fp_regfile_reads          180385                       # number of floating regfile reads
system.switch_cpus_1.fp_regfile_writes         106222                       # number of floating regfile writes
system.switch_cpus_1.misc_regfile_reads        151468                       # number of misc regfile reads
system.switch_cpus_1.misc_regfile_writes       132243                       # number of misc regfile writes
system.tol3bus.snoop_filter.tot_requests      1294820                       # Total number of requests made to the snoop filter.
system.tol3bus.snoop_filter.hit_single_requests       645373                       # Number of requests hitting in the snoop filter with a single holder of the requested data.
system.tol3bus.snoop_filter.hit_multi_requests            0                       # Number of requests hitting in the snoop filter with multiple (>1) holders of the requested data.
system.tol3bus.snoop_filter.tot_snoops            518                       # Total number of snoops made to the snoop filter.
system.tol3bus.snoop_filter.hit_single_snoops          518                       # Number of snoops hitting in the snoop filter with a single holder of the requested data.
system.tol3bus.snoop_filter.hit_multi_snoops            0                       # Number of snoops hitting in the snoop filter with multiple (>1) holders of the requested data.
system.tol3bus.pwrStateResidencyTicks::UNDEFINED 31102192651689                       # Cumulative time (in ticks) in various power states
system.tol3bus.trans_dist::ReadResp            578505                       # Transaction distribution
system.tol3bus.trans_dist::WritebackDirty       197451                       # Transaction distribution
system.tol3bus.trans_dist::CleanEvict          554422                       # Transaction distribution
system.tol3bus.trans_dist::UpgradeReq               2                       # Transaction distribution
system.tol3bus.trans_dist::UpgradeResp              2                       # Transaction distribution
system.tol3bus.trans_dist::ReadExReq            70942                       # Transaction distribution
system.tol3bus.trans_dist::ReadExResp           70942                       # Transaction distribution
system.tol3bus.trans_dist::ReadSharedReq       578505                       # Transaction distribution
system.tol3bus.pkt_count_system.cpu.l2.mem_side::system.l3.cpu_side      1944269                       # Packet count per connected master and slave (bytes)
system.tol3bus.pkt_size_system.cpu.l2.mem_side::system.l3.cpu_side     52733248                       # Cumulative packet size per connected master and slave (bytes)
system.tol3bus.snoops                          106502                       # Total snoops (count)
system.tol3bus.snoopTraffic                   1468224                       # Total snoop traffic (bytes)
system.tol3bus.snoop_fanout::samples           755951                       # Request fanout histogram
system.tol3bus.snoop_fanout::mean            0.000685                       # Request fanout histogram
system.tol3bus.snoop_fanout::stdev           0.026168                       # Request fanout histogram
system.tol3bus.snoop_fanout::underflows             0      0.00%      0.00% # Request fanout histogram
system.tol3bus.snoop_fanout::0                 755433     99.93%     99.93% # Request fanout histogram
system.tol3bus.snoop_fanout::1                    518      0.07%    100.00% # Request fanout histogram
system.tol3bus.snoop_fanout::overflows              0      0.00%    100.00% # Request fanout histogram
system.tol3bus.snoop_fanout::min_value              0                       # Request fanout histogram
system.tol3bus.snoop_fanout::max_value              1                       # Request fanout histogram
system.tol3bus.snoop_fanout::total             755951                       # Request fanout histogram
system.tol3bus.reqLayer0.occupancy          489286890                       # Layer occupancy (ticks)
system.tol3bus.reqLayer0.utilization              0.0                       # Layer utilization (%)
system.tol3bus.respLayer0.occupancy         432532368                       # Layer occupancy (ticks)
system.tol3bus.respLayer0.utilization             0.0                       # Layer utilization (%)

---------- End Simulation Statistics   ----------
