
---------- Begin Simulation Statistics ----------
sim_seconds                                  2.937462                       # Number of seconds simulated
sim_ticks                                2937462169095                       # Number of ticks simulated
final_tick                               129890458693827                       # Number of ticks from beginning of simulation (restored from checkpoints and never reset)
sim_freq                                 1000000000000                       # Frequency of simulated ticks
host_inst_rate                                 194142                       # Simulator instruction rate (inst/s)
host_op_rate                                   194142                       # Simulator op (including micro ops) rate (op/s)
host_tick_rate                              475237188                       # Simulator tick rate (ticks/s)
host_mem_usage                                2435176                       # Number of bytes of host memory used
host_seconds                                  6181.04                       # Real time elapsed on the host
sim_insts                                  1200000003                       # Number of instructions simulated
sim_ops                                    1200000003                       # Number of ops (including micro ops) simulated
system.voltage_domain.voltage                       1                       # Voltage in Volts
system.clk_domain.clock                          1000                       # Clock period in ticks
system.mem_ctrls0.pwrStateResidencyTicks::UNDEFINED 129890458693827                       # Cumulative time (in ticks) in various power states
system.mem_ctrls0.bytes_read::cpu.inst            128                       # Number of bytes read from this memory
system.mem_ctrls0.bytes_read::switch_cpus.inst       233216                       # Number of bytes read from this memory
system.mem_ctrls0.bytes_read::switch_cpus.data    394368256                       # Number of bytes read from this memory
system.mem_ctrls0.bytes_read::switch_cpus_1.inst        74688                       # Number of bytes read from this memory
system.mem_ctrls0.bytes_read::switch_cpus_1.data     89340096                       # Number of bytes read from this memory
system.mem_ctrls0.bytes_read::total         484016384                       # Number of bytes read from this memory
system.mem_ctrls0.bytes_inst_read::cpu.inst          128                       # Number of instructions bytes read from this memory
system.mem_ctrls0.bytes_inst_read::switch_cpus.inst       233216                       # Number of instructions bytes read from this memory
system.mem_ctrls0.bytes_inst_read::switch_cpus_1.inst        74688                       # Number of instructions bytes read from this memory
system.mem_ctrls0.bytes_inst_read::total       308032                       # Number of instructions bytes read from this memory
system.mem_ctrls0.bytes_written::writebacks    204257024                       # Number of bytes written to this memory
system.mem_ctrls0.bytes_written::total      204257024                       # Number of bytes written to this memory
system.mem_ctrls0.num_reads::cpu.inst               2                       # Number of read requests responded to by this memory
system.mem_ctrls0.num_reads::switch_cpus.inst         3644                       # Number of read requests responded to by this memory
system.mem_ctrls0.num_reads::switch_cpus.data      6162004                       # Number of read requests responded to by this memory
system.mem_ctrls0.num_reads::switch_cpus_1.inst         1167                       # Number of read requests responded to by this memory
system.mem_ctrls0.num_reads::switch_cpus_1.data      1395939                       # Number of read requests responded to by this memory
system.mem_ctrls0.num_reads::total            7562756                       # Number of read requests responded to by this memory
system.mem_ctrls0.num_writes::writebacks      3191516                       # Number of write requests responded to by this memory
system.mem_ctrls0.num_writes::total           3191516                       # Number of write requests responded to by this memory
system.mem_ctrls0.bw_read::cpu.inst                44                       # Total read bandwidth from this memory (bytes/s)
system.mem_ctrls0.bw_read::switch_cpus.inst        79394                       # Total read bandwidth from this memory (bytes/s)
system.mem_ctrls0.bw_read::switch_cpus.data    134254752                       # Total read bandwidth from this memory (bytes/s)
system.mem_ctrls0.bw_read::switch_cpus_1.inst        25426                       # Total read bandwidth from this memory (bytes/s)
system.mem_ctrls0.bw_read::switch_cpus_1.data     30414041                       # Total read bandwidth from this memory (bytes/s)
system.mem_ctrls0.bw_read::total            164773657                       # Total read bandwidth from this memory (bytes/s)
system.mem_ctrls0.bw_inst_read::cpu.inst           44                       # Instruction read bandwidth from this memory (bytes/s)
system.mem_ctrls0.bw_inst_read::switch_cpus.inst        79394                       # Instruction read bandwidth from this memory (bytes/s)
system.mem_ctrls0.bw_inst_read::switch_cpus_1.inst        25426                       # Instruction read bandwidth from this memory (bytes/s)
system.mem_ctrls0.bw_inst_read::total          104863                       # Instruction read bandwidth from this memory (bytes/s)
system.mem_ctrls0.bw_write::writebacks       69535202                       # Write bandwidth from this memory (bytes/s)
system.mem_ctrls0.bw_write::total            69535202                       # Write bandwidth from this memory (bytes/s)
system.mem_ctrls0.bw_total::writebacks       69535202                       # Total bandwidth to/from this memory (bytes/s)
system.mem_ctrls0.bw_total::cpu.inst               44                       # Total bandwidth to/from this memory (bytes/s)
system.mem_ctrls0.bw_total::switch_cpus.inst        79394                       # Total bandwidth to/from this memory (bytes/s)
system.mem_ctrls0.bw_total::switch_cpus.data    134254752                       # Total bandwidth to/from this memory (bytes/s)
system.mem_ctrls0.bw_total::switch_cpus_1.inst        25426                       # Total bandwidth to/from this memory (bytes/s)
system.mem_ctrls0.bw_total::switch_cpus_1.data     30414041                       # Total bandwidth to/from this memory (bytes/s)
system.mem_ctrls0.bw_total::total           234308859                       # Total bandwidth to/from this memory (bytes/s)
system.mem_ctrls0.readReqs                    7562756                       # Number of read requests accepted
system.mem_ctrls0.writeReqs                   3191516                       # Number of write requests accepted
system.mem_ctrls0.readBursts                  7562756                       # Number of DRAM read bursts, including those serviced by the write queue
system.mem_ctrls0.writeBursts                 3191516                       # Number of DRAM write bursts, including those merged in the write queue
system.mem_ctrls0.bytesReadDRAM             483703680                       # Total number of bytes read from DRAM
system.mem_ctrls0.bytesReadWrQ                 312704                       # Total number of bytes read from write queue
system.mem_ctrls0.bytesWritten              204255360                       # Total number of bytes written to DRAM
system.mem_ctrls0.bytesReadSys              484016384                       # Total read bytes from the system interface side
system.mem_ctrls0.bytesWrittenSys           204257024                       # Total written bytes from the system interface side
system.mem_ctrls0.servicedByWrQ                  4886                       # Number of DRAM read bursts serviced by the write queue
system.mem_ctrls0.mergedWrBursts                    0                       # Number of DRAM write bursts merged with an existing one
system.mem_ctrls0.neitherReadNorWriteReqs            0                       # Number of requests that are neither read nor write
system.mem_ctrls0.perBankRdBursts::0           468214                       # Per bank write bursts
system.mem_ctrls0.perBankRdBursts::1           479448                       # Per bank write bursts
system.mem_ctrls0.perBankRdBursts::2           475314                       # Per bank write bursts
system.mem_ctrls0.perBankRdBursts::3           456785                       # Per bank write bursts
system.mem_ctrls0.perBankRdBursts::4           457780                       # Per bank write bursts
system.mem_ctrls0.perBankRdBursts::5           478566                       # Per bank write bursts
system.mem_ctrls0.perBankRdBursts::6           486806                       # Per bank write bursts
system.mem_ctrls0.perBankRdBursts::7           483964                       # Per bank write bursts
system.mem_ctrls0.perBankRdBursts::8           494896                       # Per bank write bursts
system.mem_ctrls0.perBankRdBursts::9           476315                       # Per bank write bursts
system.mem_ctrls0.perBankRdBursts::10          457189                       # Per bank write bursts
system.mem_ctrls0.perBankRdBursts::11          457660                       # Per bank write bursts
system.mem_ctrls0.perBankRdBursts::12          455867                       # Per bank write bursts
system.mem_ctrls0.perBankRdBursts::13          477516                       # Per bank write bursts
system.mem_ctrls0.perBankRdBursts::14          479724                       # Per bank write bursts
system.mem_ctrls0.perBankRdBursts::15          471826                       # Per bank write bursts
system.mem_ctrls0.perBankWrBursts::0           199286                       # Per bank write bursts
system.mem_ctrls0.perBankWrBursts::1           198859                       # Per bank write bursts
system.mem_ctrls0.perBankWrBursts::2           202128                       # Per bank write bursts
system.mem_ctrls0.perBankWrBursts::3           189884                       # Per bank write bursts
system.mem_ctrls0.perBankWrBursts::4           192629                       # Per bank write bursts
system.mem_ctrls0.perBankWrBursts::5           202315                       # Per bank write bursts
system.mem_ctrls0.perBankWrBursts::6           208715                       # Per bank write bursts
system.mem_ctrls0.perBankWrBursts::7           206961                       # Per bank write bursts
system.mem_ctrls0.perBankWrBursts::8           208459                       # Per bank write bursts
system.mem_ctrls0.perBankWrBursts::9           198847                       # Per bank write bursts
system.mem_ctrls0.perBankWrBursts::10          194653                       # Per bank write bursts
system.mem_ctrls0.perBankWrBursts::11          197153                       # Per bank write bursts
system.mem_ctrls0.perBankWrBursts::12          189879                       # Per bank write bursts
system.mem_ctrls0.perBankWrBursts::13          199694                       # Per bank write bursts
system.mem_ctrls0.perBankWrBursts::14          204631                       # Per bank write bursts
system.mem_ctrls0.perBankWrBursts::15          197397                       # Per bank write bursts
system.mem_ctrls0.numRdRetry                        0                       # Number of times read queue was full causing retry
system.mem_ctrls0.numWrRetry                        0                       # Number of times write queue was full causing retry
system.mem_ctrls0.totGap                 2937462030567                       # Total gap between requests
system.mem_ctrls0.readPktSize::0                    0                       # Read request sizes (log2)
system.mem_ctrls0.readPktSize::1                    0                       # Read request sizes (log2)
system.mem_ctrls0.readPktSize::2                    0                       # Read request sizes (log2)
system.mem_ctrls0.readPktSize::3                    0                       # Read request sizes (log2)
system.mem_ctrls0.readPktSize::4                    0                       # Read request sizes (log2)
system.mem_ctrls0.readPktSize::5                    0                       # Read request sizes (log2)
system.mem_ctrls0.readPktSize::6              7562756                       # Read request sizes (log2)
system.mem_ctrls0.writePktSize::0                   0                       # Write request sizes (log2)
system.mem_ctrls0.writePktSize::1                   0                       # Write request sizes (log2)
system.mem_ctrls0.writePktSize::2                   0                       # Write request sizes (log2)
system.mem_ctrls0.writePktSize::3                   0                       # Write request sizes (log2)
system.mem_ctrls0.writePktSize::4                   0                       # Write request sizes (log2)
system.mem_ctrls0.writePktSize::5                   0                       # Write request sizes (log2)
system.mem_ctrls0.writePktSize::6             3191516                       # Write request sizes (log2)
system.mem_ctrls0.rdQLenPdf::0                7268183                       # What read queue length does an incoming req see
system.mem_ctrls0.rdQLenPdf::1                 258004                       # What read queue length does an incoming req see
system.mem_ctrls0.rdQLenPdf::2                  29863                       # What read queue length does an incoming req see
system.mem_ctrls0.rdQLenPdf::3                   1819                       # What read queue length does an incoming req see
system.mem_ctrls0.rdQLenPdf::4                      1                       # What read queue length does an incoming req see
system.mem_ctrls0.rdQLenPdf::5                      0                       # What read queue length does an incoming req see
system.mem_ctrls0.rdQLenPdf::6                      0                       # What read queue length does an incoming req see
system.mem_ctrls0.rdQLenPdf::7                      0                       # What read queue length does an incoming req see
system.mem_ctrls0.rdQLenPdf::8                      0                       # What read queue length does an incoming req see
system.mem_ctrls0.rdQLenPdf::9                      0                       # What read queue length does an incoming req see
system.mem_ctrls0.rdQLenPdf::10                     0                       # What read queue length does an incoming req see
system.mem_ctrls0.rdQLenPdf::11                     0                       # What read queue length does an incoming req see
system.mem_ctrls0.rdQLenPdf::12                     0                       # What read queue length does an incoming req see
system.mem_ctrls0.rdQLenPdf::13                     0                       # What read queue length does an incoming req see
system.mem_ctrls0.rdQLenPdf::14                     0                       # What read queue length does an incoming req see
system.mem_ctrls0.rdQLenPdf::15                     0                       # What read queue length does an incoming req see
system.mem_ctrls0.rdQLenPdf::16                     0                       # What read queue length does an incoming req see
system.mem_ctrls0.rdQLenPdf::17                     0                       # What read queue length does an incoming req see
system.mem_ctrls0.rdQLenPdf::18                     0                       # What read queue length does an incoming req see
system.mem_ctrls0.rdQLenPdf::19                     0                       # What read queue length does an incoming req see
system.mem_ctrls0.rdQLenPdf::20                     0                       # What read queue length does an incoming req see
system.mem_ctrls0.rdQLenPdf::21                     0                       # What read queue length does an incoming req see
system.mem_ctrls0.rdQLenPdf::22                     0                       # What read queue length does an incoming req see
system.mem_ctrls0.rdQLenPdf::23                     0                       # What read queue length does an incoming req see
system.mem_ctrls0.rdQLenPdf::24                     0                       # What read queue length does an incoming req see
system.mem_ctrls0.rdQLenPdf::25                     0                       # What read queue length does an incoming req see
system.mem_ctrls0.rdQLenPdf::26                     0                       # What read queue length does an incoming req see
system.mem_ctrls0.rdQLenPdf::27                     0                       # What read queue length does an incoming req see
system.mem_ctrls0.rdQLenPdf::28                     0                       # What read queue length does an incoming req see
system.mem_ctrls0.rdQLenPdf::29                     0                       # What read queue length does an incoming req see
system.mem_ctrls0.rdQLenPdf::30                     0                       # What read queue length does an incoming req see
system.mem_ctrls0.rdQLenPdf::31                     0                       # What read queue length does an incoming req see
system.mem_ctrls0.wrQLenPdf::0                      2                       # What write queue length does an incoming req see
system.mem_ctrls0.wrQLenPdf::1                      2                       # What write queue length does an incoming req see
system.mem_ctrls0.wrQLenPdf::2                      2                       # What write queue length does an incoming req see
system.mem_ctrls0.wrQLenPdf::3                      2                       # What write queue length does an incoming req see
system.mem_ctrls0.wrQLenPdf::4                      2                       # What write queue length does an incoming req see
system.mem_ctrls0.wrQLenPdf::5                      2                       # What write queue length does an incoming req see
system.mem_ctrls0.wrQLenPdf::6                      2                       # What write queue length does an incoming req see
system.mem_ctrls0.wrQLenPdf::7                      2                       # What write queue length does an incoming req see
system.mem_ctrls0.wrQLenPdf::8                      2                       # What write queue length does an incoming req see
system.mem_ctrls0.wrQLenPdf::9                      2                       # What write queue length does an incoming req see
system.mem_ctrls0.wrQLenPdf::10                     2                       # What write queue length does an incoming req see
system.mem_ctrls0.wrQLenPdf::11                     2                       # What write queue length does an incoming req see
system.mem_ctrls0.wrQLenPdf::12                     2                       # What write queue length does an incoming req see
system.mem_ctrls0.wrQLenPdf::13                     2                       # What write queue length does an incoming req see
system.mem_ctrls0.wrQLenPdf::14                     2                       # What write queue length does an incoming req see
system.mem_ctrls0.wrQLenPdf::15                120107                       # What write queue length does an incoming req see
system.mem_ctrls0.wrQLenPdf::16                125208                       # What write queue length does an incoming req see
system.mem_ctrls0.wrQLenPdf::17                180739                       # What write queue length does an incoming req see
system.mem_ctrls0.wrQLenPdf::18                183966                       # What write queue length does an incoming req see
system.mem_ctrls0.wrQLenPdf::19                184160                       # What write queue length does an incoming req see
system.mem_ctrls0.wrQLenPdf::20                184173                       # What write queue length does an incoming req see
system.mem_ctrls0.wrQLenPdf::21                184097                       # What write queue length does an incoming req see
system.mem_ctrls0.wrQLenPdf::22                184102                       # What write queue length does an incoming req see
system.mem_ctrls0.wrQLenPdf::23                184281                       # What write queue length does an incoming req see
system.mem_ctrls0.wrQLenPdf::24                184089                       # What write queue length does an incoming req see
system.mem_ctrls0.wrQLenPdf::25                185912                       # What write queue length does an incoming req see
system.mem_ctrls0.wrQLenPdf::26                185116                       # What write queue length does an incoming req see
system.mem_ctrls0.wrQLenPdf::27                184172                       # What write queue length does an incoming req see
system.mem_ctrls0.wrQLenPdf::28                184079                       # What write queue length does an incoming req see
system.mem_ctrls0.wrQLenPdf::29                184360                       # What write queue length does an incoming req see
system.mem_ctrls0.wrQLenPdf::30                185332                       # What write queue length does an incoming req see
system.mem_ctrls0.wrQLenPdf::31                183789                       # What write queue length does an incoming req see
system.mem_ctrls0.wrQLenPdf::32                183755                       # What write queue length does an incoming req see
system.mem_ctrls0.wrQLenPdf::33                    46                       # What write queue length does an incoming req see
system.mem_ctrls0.wrQLenPdf::34                     3                       # What write queue length does an incoming req see
system.mem_ctrls0.wrQLenPdf::35                     0                       # What write queue length does an incoming req see
system.mem_ctrls0.wrQLenPdf::36                     0                       # What write queue length does an incoming req see
system.mem_ctrls0.wrQLenPdf::37                     0                       # What write queue length does an incoming req see
system.mem_ctrls0.wrQLenPdf::38                     0                       # What write queue length does an incoming req see
system.mem_ctrls0.wrQLenPdf::39                     0                       # What write queue length does an incoming req see
system.mem_ctrls0.wrQLenPdf::40                     0                       # What write queue length does an incoming req see
system.mem_ctrls0.wrQLenPdf::41                     0                       # What write queue length does an incoming req see
system.mem_ctrls0.wrQLenPdf::42                     0                       # What write queue length does an incoming req see
system.mem_ctrls0.wrQLenPdf::43                     0                       # What write queue length does an incoming req see
system.mem_ctrls0.wrQLenPdf::44                     0                       # What write queue length does an incoming req see
system.mem_ctrls0.wrQLenPdf::45                     0                       # What write queue length does an incoming req see
system.mem_ctrls0.wrQLenPdf::46                     0                       # What write queue length does an incoming req see
system.mem_ctrls0.wrQLenPdf::47                     0                       # What write queue length does an incoming req see
system.mem_ctrls0.wrQLenPdf::48                     0                       # What write queue length does an incoming req see
system.mem_ctrls0.wrQLenPdf::49                     0                       # What write queue length does an incoming req see
system.mem_ctrls0.wrQLenPdf::50                     0                       # What write queue length does an incoming req see
system.mem_ctrls0.wrQLenPdf::51                     0                       # What write queue length does an incoming req see
system.mem_ctrls0.wrQLenPdf::52                     0                       # What write queue length does an incoming req see
system.mem_ctrls0.wrQLenPdf::53                     0                       # What write queue length does an incoming req see
system.mem_ctrls0.wrQLenPdf::54                     0                       # What write queue length does an incoming req see
system.mem_ctrls0.wrQLenPdf::55                     0                       # What write queue length does an incoming req see
system.mem_ctrls0.wrQLenPdf::56                     0                       # What write queue length does an incoming req see
system.mem_ctrls0.wrQLenPdf::57                     0                       # What write queue length does an incoming req see
system.mem_ctrls0.wrQLenPdf::58                     0                       # What write queue length does an incoming req see
system.mem_ctrls0.wrQLenPdf::59                     0                       # What write queue length does an incoming req see
system.mem_ctrls0.wrQLenPdf::60                     0                       # What write queue length does an incoming req see
system.mem_ctrls0.wrQLenPdf::61                     0                       # What write queue length does an incoming req see
system.mem_ctrls0.wrQLenPdf::62                     0                       # What write queue length does an incoming req see
system.mem_ctrls0.wrQLenPdf::63                     0                       # What write queue length does an incoming req see
system.mem_ctrls0.bytesPerActivate::samples      6897491                       # Bytes accessed per row activation
system.mem_ctrls0.bytesPerActivate::mean    99.740273                       # Bytes accessed per row activation
system.mem_ctrls0.bytesPerActivate::gmean    82.767997                       # Bytes accessed per row activation
system.mem_ctrls0.bytesPerActivate::stdev    90.758904                       # Bytes accessed per row activation
system.mem_ctrls0.bytesPerActivate::0-127      5241297     75.99%     75.99% # Bytes accessed per row activation
system.mem_ctrls0.bytesPerActivate::128-255      1179857     17.11%     93.09% # Bytes accessed per row activation
system.mem_ctrls0.bytesPerActivate::256-383       267821      3.88%     96.98% # Bytes accessed per row activation
system.mem_ctrls0.bytesPerActivate::384-511       117973      1.71%     98.69% # Bytes accessed per row activation
system.mem_ctrls0.bytesPerActivate::512-639        55467      0.80%     99.49% # Bytes accessed per row activation
system.mem_ctrls0.bytesPerActivate::640-767        20109      0.29%     99.78% # Bytes accessed per row activation
system.mem_ctrls0.bytesPerActivate::768-895         8206      0.12%     99.90% # Bytes accessed per row activation
system.mem_ctrls0.bytesPerActivate::896-1023         3832      0.06%     99.96% # Bytes accessed per row activation
system.mem_ctrls0.bytesPerActivate::1024-1151         2929      0.04%    100.00% # Bytes accessed per row activation
system.mem_ctrls0.bytesPerActivate::total      6897491                       # Bytes accessed per row activation
system.mem_ctrls0.rdPerTurnAround::samples       183746                       # Reads before turning the bus around for writes
system.mem_ctrls0.rdPerTurnAround::mean     41.131987                       # Reads before turning the bus around for writes
system.mem_ctrls0.rdPerTurnAround::gmean    39.443464                       # Reads before turning the bus around for writes
system.mem_ctrls0.rdPerTurnAround::stdev    56.424032                       # Reads before turning the bus around for writes
system.mem_ctrls0.rdPerTurnAround::0-1023       183745    100.00%    100.00% # Reads before turning the bus around for writes
system.mem_ctrls0.rdPerTurnAround::23552-24575            1      0.00%    100.00% # Reads before turning the bus around for writes
system.mem_ctrls0.rdPerTurnAround::total       183746                       # Reads before turning the bus around for writes
system.mem_ctrls0.wrPerTurnAround::samples       183746                       # Writes before turning the bus around for reads
system.mem_ctrls0.wrPerTurnAround::mean     17.369031                       # Writes before turning the bus around for reads
system.mem_ctrls0.wrPerTurnAround::gmean    17.341261                       # Writes before turning the bus around for reads
system.mem_ctrls0.wrPerTurnAround::stdev     0.971522                       # Writes before turning the bus around for reads
system.mem_ctrls0.wrPerTurnAround::16           58735     31.97%     31.97% # Writes before turning the bus around for reads
system.mem_ctrls0.wrPerTurnAround::17            4646      2.53%     34.49% # Writes before turning the bus around for reads
system.mem_ctrls0.wrPerTurnAround::18          114531     62.33%     96.82% # Writes before turning the bus around for reads
system.mem_ctrls0.wrPerTurnAround::19            5526      3.01%     99.83% # Writes before turning the bus around for reads
system.mem_ctrls0.wrPerTurnAround::20             280      0.15%     99.98% # Writes before turning the bus around for reads
system.mem_ctrls0.wrPerTurnAround::21              26      0.01%    100.00% # Writes before turning the bus around for reads
system.mem_ctrls0.wrPerTurnAround::22               1      0.00%    100.00% # Writes before turning the bus around for reads
system.mem_ctrls0.wrPerTurnAround::28               1      0.00%    100.00% # Writes before turning the bus around for reads
system.mem_ctrls0.wrPerTurnAround::total       183746                       # Writes before turning the bus around for reads
system.mem_ctrls0.totQLat                159695492142                       # Total ticks spent queuing
system.mem_ctrls0.totMemAccLat           301405554642                       # Total ticks spent from burst creation until serviced by the DRAM
system.mem_ctrls0.totBusLat               37789350000                       # Total ticks spent in databus transfers
system.mem_ctrls0.avgQLat                    21129.70                       # Average queueing delay per DRAM burst
system.mem_ctrls0.avgBusLat                   5000.00                       # Average bus latency per DRAM burst
system.mem_ctrls0.avgMemAccLat               39879.70                       # Average memory access latency per DRAM burst
system.mem_ctrls0.avgRdBW                      164.67                       # Average DRAM read bandwidth in MiByte/s
system.mem_ctrls0.avgWrBW                       69.53                       # Average achieved write bandwidth in MiByte/s
system.mem_ctrls0.avgRdBWSys                   164.77                       # Average system read bandwidth in MiByte/s
system.mem_ctrls0.avgWrBWSys                    69.54                       # Average system write bandwidth in MiByte/s
system.mem_ctrls0.peakBW                     12800.00                       # Theoretical peak bandwidth in MiByte/s
system.mem_ctrls0.busUtil                        1.83                       # Data bus utilization in percentage
system.mem_ctrls0.busUtilRead                    1.29                       # Data bus utilization in percentage for reads
system.mem_ctrls0.busUtilWrite                   0.54                       # Data bus utilization in percentage for writes
system.mem_ctrls0.avgRdQLen                      1.02                       # Average read queue length when enqueuing
system.mem_ctrls0.avgWrQLen                     24.73                       # Average write queue length when enqueuing
system.mem_ctrls0.readRowHits                 3791663                       # Number of row buffer hits during reads
system.mem_ctrls0.writeRowHits                  60198                       # Number of row buffer hits during writes
system.mem_ctrls0.readRowHitRate                50.17                       # Row buffer hit rate for reads
system.mem_ctrls0.writeRowHitRate                1.89                       # Row buffer hit rate for writes
system.mem_ctrls0.avgGap                    273143.74                       # Average gap between requests
system.mem_ctrls0.pageHitRate                   35.83                       # Row buffer hit rate, read and write combined
system.mem_ctrls0_0.actEnergy             24648315300                       # Energy for activate commands per rank (pJ)
system.mem_ctrls0_0.preEnergy             13100867505                       # Energy for precharge commands per rank (pJ)
system.mem_ctrls0_0.readEnergy            27038301780                       # Energy for read commands per rank (pJ)
system.mem_ctrls0_0.writeEnergy            8356055940                       # Energy for write commands per rank (pJ)
system.mem_ctrls0_0.refreshEnergy        233172288960.000061                       # Energy for refresh commands per rank (pJ)
system.mem_ctrls0_0.actBackEnergy        174264747390                       # Energy for active background per rank (pJ)
system.mem_ctrls0_0.preBackEnergy          5595404160                       # Energy for precharge background per rank (pJ)
system.mem_ctrls0_0.actPowerDownEnergy   996489563280                       # Energy for active power-down per rank (pJ)
system.mem_ctrls0_0.prePowerDownEnergy   127254598080                       # Energy for precharge power-down per rank (pJ)
system.mem_ctrls0_0.selfRefreshEnergy      8859135870                       # Energy for self refresh per rank (pJ)
system.mem_ctrls0_0.totalEnergy          1618806626145                       # Total energy per rank (pJ)
system.mem_ctrls0_0.averagePower           551.090202                       # Core power per rank (mW)
system.mem_ctrls0_0.totalIdleTime        2540673339252                       # Total Idle time Per DRAM Rank
system.mem_ctrls0_0.memoryStateTime::IDLE   3635890527                       # Time in different power states
system.mem_ctrls0_0.memoryStateTime::REF  98670706000                       # Time in different power states
system.mem_ctrls0_0.memoryStateTime::SREF  23994077131                       # Time in different power states
system.mem_ctrls0_0.memoryStateTime::PRE_PDN 331392326801                       # Time in different power states
system.mem_ctrls0_0.memoryStateTime::ACT 294481639352                       # Time in different power states
system.mem_ctrls0_0.memoryStateTime::ACT_PDN 2185287529284                       # Time in different power states
system.mem_ctrls0_1.actEnergy             24599827560                       # Energy for activate commands per rank (pJ)
system.mem_ctrls0_1.preEnergy             13075110840                       # Energy for precharge commands per rank (pJ)
system.mem_ctrls0_1.readEnergy            26924890020                       # Energy for read commands per rank (pJ)
system.mem_ctrls0_1.writeEnergy            8303521860                       # Energy for write commands per rank (pJ)
system.mem_ctrls0_1.refreshEnergy        233110210320.000061                       # Energy for refresh commands per rank (pJ)
system.mem_ctrls0_1.actBackEnergy        174402422340                       # Energy for active background per rank (pJ)
system.mem_ctrls0_1.preBackEnergy          5587891200                       # Energy for precharge background per rank (pJ)
system.mem_ctrls0_1.actPowerDownEnergy   995275014690                       # Energy for active power-down per rank (pJ)
system.mem_ctrls0_1.prePowerDownEnergy   127871940000                       # Energy for precharge power-down per rank (pJ)
system.mem_ctrls0_1.selfRefreshEnergy      9042878055                       # Energy for self refresh per rank (pJ)
system.mem_ctrls0_1.totalEnergy          1618219319985                       # Total energy per rank (pJ)
system.mem_ctrls0_1.averagePower           550.890264                       # Core power per rank (mW)
system.mem_ctrls0_1.totalIdleTime        2540392263175                       # Total Idle time Per DRAM Rank
system.mem_ctrls0_1.memoryStateTime::IDLE   3639441546                       # Time in different power states
system.mem_ctrls0_1.memoryStateTime::REF  98644536000                       # Time in different power states
system.mem_ctrls0_1.memoryStateTime::SREF  24771458771                       # Time in different power states
system.mem_ctrls0_1.memoryStateTime::PRE_PDN 333000436316                       # Time in different power states
system.mem_ctrls0_1.memoryStateTime::ACT 294785829248                       # Time in different power states
system.mem_ctrls0_1.memoryStateTime::ACT_PDN 2182620467214                       # Time in different power states
system.mem_ctrls1.pwrStateResidencyTicks::UNDEFINED 129890458693827                       # Cumulative time (in ticks) in various power states
system.mem_ctrls1.bytes_read::cpu.data            128                       # Number of bytes read from this memory
system.mem_ctrls1.bytes_read::switch_cpus.inst       247744                       # Number of bytes read from this memory
system.mem_ctrls1.bytes_read::switch_cpus.data    394880064                       # Number of bytes read from this memory
system.mem_ctrls1.bytes_read::switch_cpus_1.inst        80320                       # Number of bytes read from this memory
system.mem_ctrls1.bytes_read::switch_cpus_1.data     89473344                       # Number of bytes read from this memory
system.mem_ctrls1.bytes_read::total         484681600                       # Number of bytes read from this memory
system.mem_ctrls1.bytes_inst_read::switch_cpus.inst       247744                       # Number of instructions bytes read from this memory
system.mem_ctrls1.bytes_inst_read::switch_cpus_1.inst        80320                       # Number of instructions bytes read from this memory
system.mem_ctrls1.bytes_inst_read::total       328064                       # Number of instructions bytes read from this memory
system.mem_ctrls1.bytes_written::writebacks    203590656                       # Number of bytes written to this memory
system.mem_ctrls1.bytes_written::total      203590656                       # Number of bytes written to this memory
system.mem_ctrls1.num_reads::cpu.data               2                       # Number of read requests responded to by this memory
system.mem_ctrls1.num_reads::switch_cpus.inst         3871                       # Number of read requests responded to by this memory
system.mem_ctrls1.num_reads::switch_cpus.data      6170001                       # Number of read requests responded to by this memory
system.mem_ctrls1.num_reads::switch_cpus_1.inst         1255                       # Number of read requests responded to by this memory
system.mem_ctrls1.num_reads::switch_cpus_1.data      1398021                       # Number of read requests responded to by this memory
system.mem_ctrls1.num_reads::total            7573150                       # Number of read requests responded to by this memory
system.mem_ctrls1.num_writes::writebacks      3181104                       # Number of write requests responded to by this memory
system.mem_ctrls1.num_writes::total           3181104                       # Number of write requests responded to by this memory
system.mem_ctrls1.bw_read::cpu.data                44                       # Total read bandwidth from this memory (bytes/s)
system.mem_ctrls1.bw_read::switch_cpus.inst        84339                       # Total read bandwidth from this memory (bytes/s)
system.mem_ctrls1.bw_read::switch_cpus.data    134428987                       # Total read bandwidth from this memory (bytes/s)
system.mem_ctrls1.bw_read::switch_cpus_1.inst        27343                       # Total read bandwidth from this memory (bytes/s)
system.mem_ctrls1.bw_read::switch_cpus_1.data     30459403                       # Total read bandwidth from this memory (bytes/s)
system.mem_ctrls1.bw_read::total            165000116                       # Total read bandwidth from this memory (bytes/s)
system.mem_ctrls1.bw_inst_read::switch_cpus.inst        84339                       # Instruction read bandwidth from this memory (bytes/s)
system.mem_ctrls1.bw_inst_read::switch_cpus_1.inst        27343                       # Instruction read bandwidth from this memory (bytes/s)
system.mem_ctrls1.bw_inst_read::total          111683                       # Instruction read bandwidth from this memory (bytes/s)
system.mem_ctrls1.bw_write::writebacks       69308350                       # Write bandwidth from this memory (bytes/s)
system.mem_ctrls1.bw_write::total            69308350                       # Write bandwidth from this memory (bytes/s)
system.mem_ctrls1.bw_total::writebacks       69308350                       # Total bandwidth to/from this memory (bytes/s)
system.mem_ctrls1.bw_total::cpu.data               44                       # Total bandwidth to/from this memory (bytes/s)
system.mem_ctrls1.bw_total::switch_cpus.inst        84339                       # Total bandwidth to/from this memory (bytes/s)
system.mem_ctrls1.bw_total::switch_cpus.data    134428987                       # Total bandwidth to/from this memory (bytes/s)
system.mem_ctrls1.bw_total::switch_cpus_1.inst        27343                       # Total bandwidth to/from this memory (bytes/s)
system.mem_ctrls1.bw_total::switch_cpus_1.data     30459403                       # Total bandwidth to/from this memory (bytes/s)
system.mem_ctrls1.bw_total::total           234308466                       # Total bandwidth to/from this memory (bytes/s)
system.mem_ctrls1.readReqs                    7573150                       # Number of read requests accepted
system.mem_ctrls1.writeReqs                   3181104                       # Number of write requests accepted
system.mem_ctrls1.readBursts                  7573150                       # Number of DRAM read bursts, including those serviced by the write queue
system.mem_ctrls1.writeBursts                 3181104                       # Number of DRAM write bursts, including those merged in the write queue
system.mem_ctrls1.bytesReadDRAM             484359360                       # Total number of bytes read from DRAM
system.mem_ctrls1.bytesReadWrQ                 322240                       # Total number of bytes read from write queue
system.mem_ctrls1.bytesWritten              203589184                       # Total number of bytes written to DRAM
system.mem_ctrls1.bytesReadSys              484681600                       # Total read bytes from the system interface side
system.mem_ctrls1.bytesWrittenSys           203590656                       # Total written bytes from the system interface side
system.mem_ctrls1.servicedByWrQ                  5035                       # Number of DRAM read bursts serviced by the write queue
system.mem_ctrls1.mergedWrBursts                    0                       # Number of DRAM write bursts merged with an existing one
system.mem_ctrls1.neitherReadNorWriteReqs            0                       # Number of requests that are neither read nor write
system.mem_ctrls1.perBankRdBursts::0           470780                       # Per bank write bursts
system.mem_ctrls1.perBankRdBursts::1           475164                       # Per bank write bursts
system.mem_ctrls1.perBankRdBursts::2           472766                       # Per bank write bursts
system.mem_ctrls1.perBankRdBursts::3           460883                       # Per bank write bursts
system.mem_ctrls1.perBankRdBursts::4           457413                       # Per bank write bursts
system.mem_ctrls1.perBankRdBursts::5           477832                       # Per bank write bursts
system.mem_ctrls1.perBankRdBursts::6           489963                       # Per bank write bursts
system.mem_ctrls1.perBankRdBursts::7           480641                       # Per bank write bursts
system.mem_ctrls1.perBankRdBursts::8           497641                       # Per bank write bursts
system.mem_ctrls1.perBankRdBursts::9           481679                       # Per bank write bursts
system.mem_ctrls1.perBankRdBursts::10          459008                       # Per bank write bursts
system.mem_ctrls1.perBankRdBursts::11          458410                       # Per bank write bursts
system.mem_ctrls1.perBankRdBursts::12          458543                       # Per bank write bursts
system.mem_ctrls1.perBankRdBursts::13          475806                       # Per bank write bursts
system.mem_ctrls1.perBankRdBursts::14          480601                       # Per bank write bursts
system.mem_ctrls1.perBankRdBursts::15          470985                       # Per bank write bursts
system.mem_ctrls1.perBankWrBursts::0           198479                       # Per bank write bursts
system.mem_ctrls1.perBankWrBursts::1           197252                       # Per bank write bursts
system.mem_ctrls1.perBankWrBursts::2           198254                       # Per bank write bursts
system.mem_ctrls1.perBankWrBursts::3           192415                       # Per bank write bursts
system.mem_ctrls1.perBankWrBursts::4           194803                       # Per bank write bursts
system.mem_ctrls1.perBankWrBursts::5           199182                       # Per bank write bursts
system.mem_ctrls1.perBankWrBursts::6           206140                       # Per bank write bursts
system.mem_ctrls1.perBankWrBursts::7           199722                       # Per bank write bursts
system.mem_ctrls1.perBankWrBursts::8           209529                       # Per bank write bursts
system.mem_ctrls1.perBankWrBursts::9           198176                       # Per bank write bursts
system.mem_ctrls1.perBankWrBursts::10          197699                       # Per bank write bursts
system.mem_ctrls1.perBankWrBursts::11          195213                       # Per bank write bursts
system.mem_ctrls1.perBankWrBursts::12          191671                       # Per bank write bursts
system.mem_ctrls1.perBankWrBursts::13          199699                       # Per bank write bursts
system.mem_ctrls1.perBankWrBursts::14          203297                       # Per bank write bursts
system.mem_ctrls1.perBankWrBursts::15          199550                       # Per bank write bursts
system.mem_ctrls1.numRdRetry                        0                       # Number of times read queue was full causing retry
system.mem_ctrls1.numWrRetry                        0                       # Number of times write queue was full causing retry
system.mem_ctrls1.totGap                 2937461859072                       # Total gap between requests
system.mem_ctrls1.readPktSize::0                    0                       # Read request sizes (log2)
system.mem_ctrls1.readPktSize::1                    0                       # Read request sizes (log2)
system.mem_ctrls1.readPktSize::2                    0                       # Read request sizes (log2)
system.mem_ctrls1.readPktSize::3                    0                       # Read request sizes (log2)
system.mem_ctrls1.readPktSize::4                    0                       # Read request sizes (log2)
system.mem_ctrls1.readPktSize::5                    0                       # Read request sizes (log2)
system.mem_ctrls1.readPktSize::6              7573150                       # Read request sizes (log2)
system.mem_ctrls1.writePktSize::0                   0                       # Write request sizes (log2)
system.mem_ctrls1.writePktSize::1                   0                       # Write request sizes (log2)
system.mem_ctrls1.writePktSize::2                   0                       # Write request sizes (log2)
system.mem_ctrls1.writePktSize::3                   0                       # Write request sizes (log2)
system.mem_ctrls1.writePktSize::4                   0                       # Write request sizes (log2)
system.mem_ctrls1.writePktSize::5                   0                       # Write request sizes (log2)
system.mem_ctrls1.writePktSize::6             3181104                       # Write request sizes (log2)
system.mem_ctrls1.rdQLenPdf::0                7277174                       # What read queue length does an incoming req see
system.mem_ctrls1.rdQLenPdf::1                 258343                       # What read queue length does an incoming req see
system.mem_ctrls1.rdQLenPdf::2                  30701                       # What read queue length does an incoming req see
system.mem_ctrls1.rdQLenPdf::3                   1896                       # What read queue length does an incoming req see
system.mem_ctrls1.rdQLenPdf::4                      1                       # What read queue length does an incoming req see
system.mem_ctrls1.rdQLenPdf::5                      0                       # What read queue length does an incoming req see
system.mem_ctrls1.rdQLenPdf::6                      0                       # What read queue length does an incoming req see
system.mem_ctrls1.rdQLenPdf::7                      0                       # What read queue length does an incoming req see
system.mem_ctrls1.rdQLenPdf::8                      0                       # What read queue length does an incoming req see
system.mem_ctrls1.rdQLenPdf::9                      0                       # What read queue length does an incoming req see
system.mem_ctrls1.rdQLenPdf::10                     0                       # What read queue length does an incoming req see
system.mem_ctrls1.rdQLenPdf::11                     0                       # What read queue length does an incoming req see
system.mem_ctrls1.rdQLenPdf::12                     0                       # What read queue length does an incoming req see
system.mem_ctrls1.rdQLenPdf::13                     0                       # What read queue length does an incoming req see
system.mem_ctrls1.rdQLenPdf::14                     0                       # What read queue length does an incoming req see
system.mem_ctrls1.rdQLenPdf::15                     0                       # What read queue length does an incoming req see
system.mem_ctrls1.rdQLenPdf::16                     0                       # What read queue length does an incoming req see
system.mem_ctrls1.rdQLenPdf::17                     0                       # What read queue length does an incoming req see
system.mem_ctrls1.rdQLenPdf::18                     0                       # What read queue length does an incoming req see
system.mem_ctrls1.rdQLenPdf::19                     0                       # What read queue length does an incoming req see
system.mem_ctrls1.rdQLenPdf::20                     0                       # What read queue length does an incoming req see
system.mem_ctrls1.rdQLenPdf::21                     0                       # What read queue length does an incoming req see
system.mem_ctrls1.rdQLenPdf::22                     0                       # What read queue length does an incoming req see
system.mem_ctrls1.rdQLenPdf::23                     0                       # What read queue length does an incoming req see
system.mem_ctrls1.rdQLenPdf::24                     0                       # What read queue length does an incoming req see
system.mem_ctrls1.rdQLenPdf::25                     0                       # What read queue length does an incoming req see
system.mem_ctrls1.rdQLenPdf::26                     0                       # What read queue length does an incoming req see
system.mem_ctrls1.rdQLenPdf::27                     0                       # What read queue length does an incoming req see
system.mem_ctrls1.rdQLenPdf::28                     0                       # What read queue length does an incoming req see
system.mem_ctrls1.rdQLenPdf::29                     0                       # What read queue length does an incoming req see
system.mem_ctrls1.rdQLenPdf::30                     0                       # What read queue length does an incoming req see
system.mem_ctrls1.rdQLenPdf::31                     0                       # What read queue length does an incoming req see
system.mem_ctrls1.wrQLenPdf::0                      2                       # What write queue length does an incoming req see
system.mem_ctrls1.wrQLenPdf::1                      2                       # What write queue length does an incoming req see
system.mem_ctrls1.wrQLenPdf::2                      2                       # What write queue length does an incoming req see
system.mem_ctrls1.wrQLenPdf::3                      2                       # What write queue length does an incoming req see
system.mem_ctrls1.wrQLenPdf::4                      2                       # What write queue length does an incoming req see
system.mem_ctrls1.wrQLenPdf::5                      2                       # What write queue length does an incoming req see
system.mem_ctrls1.wrQLenPdf::6                      2                       # What write queue length does an incoming req see
system.mem_ctrls1.wrQLenPdf::7                      2                       # What write queue length does an incoming req see
system.mem_ctrls1.wrQLenPdf::8                      2                       # What write queue length does an incoming req see
system.mem_ctrls1.wrQLenPdf::9                      2                       # What write queue length does an incoming req see
system.mem_ctrls1.wrQLenPdf::10                     2                       # What write queue length does an incoming req see
system.mem_ctrls1.wrQLenPdf::11                     2                       # What write queue length does an incoming req see
system.mem_ctrls1.wrQLenPdf::12                     2                       # What write queue length does an incoming req see
system.mem_ctrls1.wrQLenPdf::13                     2                       # What write queue length does an incoming req see
system.mem_ctrls1.wrQLenPdf::14                     2                       # What write queue length does an incoming req see
system.mem_ctrls1.wrQLenPdf::15                119550                       # What write queue length does an incoming req see
system.mem_ctrls1.wrQLenPdf::16                124709                       # What write queue length does an incoming req see
system.mem_ctrls1.wrQLenPdf::17                180214                       # What write queue length does an incoming req see
system.mem_ctrls1.wrQLenPdf::18                183432                       # What write queue length does an incoming req see
system.mem_ctrls1.wrQLenPdf::19                183562                       # What write queue length does an incoming req see
system.mem_ctrls1.wrQLenPdf::20                183589                       # What write queue length does an incoming req see
system.mem_ctrls1.wrQLenPdf::21                183498                       # What write queue length does an incoming req see
system.mem_ctrls1.wrQLenPdf::22                183532                       # What write queue length does an incoming req see
system.mem_ctrls1.wrQLenPdf::23                183642                       # What write queue length does an incoming req see
system.mem_ctrls1.wrQLenPdf::24                183559                       # What write queue length does an incoming req see
system.mem_ctrls1.wrQLenPdf::25                185193                       # What write queue length does an incoming req see
system.mem_ctrls1.wrQLenPdf::26                184622                       # What write queue length does an incoming req see
system.mem_ctrls1.wrQLenPdf::27                183550                       # What write queue length does an incoming req see
system.mem_ctrls1.wrQLenPdf::28                183483                       # What write queue length does an incoming req see
system.mem_ctrls1.wrQLenPdf::29                183753                       # What write queue length does an incoming req see
system.mem_ctrls1.wrQLenPdf::30                184769                       # What write queue length does an incoming req see
system.mem_ctrls1.wrQLenPdf::31                183195                       # What write queue length does an incoming req see
system.mem_ctrls1.wrQLenPdf::32                183173                       # What write queue length does an incoming req see
system.mem_ctrls1.wrQLenPdf::33                    48                       # What write queue length does an incoming req see
system.mem_ctrls1.wrQLenPdf::34                     1                       # What write queue length does an incoming req see
system.mem_ctrls1.wrQLenPdf::35                     0                       # What write queue length does an incoming req see
system.mem_ctrls1.wrQLenPdf::36                     0                       # What write queue length does an incoming req see
system.mem_ctrls1.wrQLenPdf::37                     0                       # What write queue length does an incoming req see
system.mem_ctrls1.wrQLenPdf::38                     0                       # What write queue length does an incoming req see
system.mem_ctrls1.wrQLenPdf::39                     0                       # What write queue length does an incoming req see
system.mem_ctrls1.wrQLenPdf::40                     0                       # What write queue length does an incoming req see
system.mem_ctrls1.wrQLenPdf::41                     0                       # What write queue length does an incoming req see
system.mem_ctrls1.wrQLenPdf::42                     0                       # What write queue length does an incoming req see
system.mem_ctrls1.wrQLenPdf::43                     0                       # What write queue length does an incoming req see
system.mem_ctrls1.wrQLenPdf::44                     0                       # What write queue length does an incoming req see
system.mem_ctrls1.wrQLenPdf::45                     0                       # What write queue length does an incoming req see
system.mem_ctrls1.wrQLenPdf::46                     0                       # What write queue length does an incoming req see
system.mem_ctrls1.wrQLenPdf::47                     0                       # What write queue length does an incoming req see
system.mem_ctrls1.wrQLenPdf::48                     0                       # What write queue length does an incoming req see
system.mem_ctrls1.wrQLenPdf::49                     0                       # What write queue length does an incoming req see
system.mem_ctrls1.wrQLenPdf::50                     0                       # What write queue length does an incoming req see
system.mem_ctrls1.wrQLenPdf::51                     0                       # What write queue length does an incoming req see
system.mem_ctrls1.wrQLenPdf::52                     0                       # What write queue length does an incoming req see
system.mem_ctrls1.wrQLenPdf::53                     0                       # What write queue length does an incoming req see
system.mem_ctrls1.wrQLenPdf::54                     0                       # What write queue length does an incoming req see
system.mem_ctrls1.wrQLenPdf::55                     0                       # What write queue length does an incoming req see
system.mem_ctrls1.wrQLenPdf::56                     0                       # What write queue length does an incoming req see
system.mem_ctrls1.wrQLenPdf::57                     0                       # What write queue length does an incoming req see
system.mem_ctrls1.wrQLenPdf::58                     0                       # What write queue length does an incoming req see
system.mem_ctrls1.wrQLenPdf::59                     0                       # What write queue length does an incoming req see
system.mem_ctrls1.wrQLenPdf::60                     0                       # What write queue length does an incoming req see
system.mem_ctrls1.wrQLenPdf::61                     0                       # What write queue length does an incoming req see
system.mem_ctrls1.wrQLenPdf::62                     0                       # What write queue length does an incoming req see
system.mem_ctrls1.wrQLenPdf::63                     0                       # What write queue length does an incoming req see
system.mem_ctrls1.bytesPerActivate::samples      6884013                       # Bytes accessed per row activation
system.mem_ctrls1.bytesPerActivate::mean    99.934101                       # Bytes accessed per row activation
system.mem_ctrls1.bytesPerActivate::gmean    82.872084                       # Bytes accessed per row activation
system.mem_ctrls1.bytesPerActivate::stdev    90.998849                       # Bytes accessed per row activation
system.mem_ctrls1.bytesPerActivate::0-127      5223594     75.88%     75.88% # Bytes accessed per row activation
system.mem_ctrls1.bytesPerActivate::128-255      1182320     17.17%     93.05% # Bytes accessed per row activation
system.mem_ctrls1.bytesPerActivate::256-383       268059      3.89%     96.95% # Bytes accessed per row activation
system.mem_ctrls1.bytesPerActivate::384-511       118255      1.72%     98.67% # Bytes accessed per row activation
system.mem_ctrls1.bytesPerActivate::512-639        56507      0.82%     99.49% # Bytes accessed per row activation
system.mem_ctrls1.bytesPerActivate::640-767        20329      0.30%     99.78% # Bytes accessed per row activation
system.mem_ctrls1.bytesPerActivate::768-895         8352      0.12%     99.90% # Bytes accessed per row activation
system.mem_ctrls1.bytesPerActivate::896-1023         3789      0.06%     99.96% # Bytes accessed per row activation
system.mem_ctrls1.bytesPerActivate::1024-1151         2808      0.04%    100.00% # Bytes accessed per row activation
system.mem_ctrls1.bytesPerActivate::total      6884013                       # Bytes accessed per row activation
system.mem_ctrls1.rdPerTurnAround::samples       183168                       # Reads before turning the bus around for writes
system.mem_ctrls1.rdPerTurnAround::mean     41.317703                       # Reads before turning the bus around for writes
system.mem_ctrls1.rdPerTurnAround::stdev    57.360349                       # Reads before turning the bus around for writes
system.mem_ctrls1.rdPerTurnAround::0-1023       183167    100.00%    100.00% # Reads before turning the bus around for writes
system.mem_ctrls1.rdPerTurnAround::23552-24575            1      0.00%    100.00% # Reads before turning the bus around for writes
system.mem_ctrls1.rdPerTurnAround::total       183168                       # Reads before turning the bus around for writes
system.mem_ctrls1.wrPerTurnAround::samples       183168                       # Writes before turning the bus around for reads
system.mem_ctrls1.wrPerTurnAround::mean     17.367013                       # Writes before turning the bus around for reads
system.mem_ctrls1.wrPerTurnAround::gmean    17.339247                       # Writes before turning the bus around for reads
system.mem_ctrls1.wrPerTurnAround::stdev     0.971318                       # Writes before turning the bus around for reads
system.mem_ctrls1.wrPerTurnAround::15               1      0.00%      0.00% # Writes before turning the bus around for reads
system.mem_ctrls1.wrPerTurnAround::16           58697     32.05%     32.05% # Writes before turning the bus around for reads
system.mem_ctrls1.wrPerTurnAround::17            4638      2.53%     34.58% # Writes before turning the bus around for reads
system.mem_ctrls1.wrPerTurnAround::18          114054     62.27%     96.85% # Writes before turning the bus around for reads
system.mem_ctrls1.wrPerTurnAround::19            5484      2.99%     99.84% # Writes before turning the bus around for reads
system.mem_ctrls1.wrPerTurnAround::20             277      0.15%     99.99% # Writes before turning the bus around for reads
system.mem_ctrls1.wrPerTurnAround::21              14      0.01%    100.00% # Writes before turning the bus around for reads
system.mem_ctrls1.wrPerTurnAround::22               3      0.00%    100.00% # Writes before turning the bus around for reads
system.mem_ctrls1.wrPerTurnAround::total       183168                       # Writes before turning the bus around for reads
system.mem_ctrls1.totQLat                159961777958                       # Total ticks spent queuing
system.mem_ctrls1.totMemAccLat           301863934208                       # Total ticks spent from burst creation until serviced by the DRAM
system.mem_ctrls1.totBusLat               37840575000                       # Total ticks spent in databus transfers
system.mem_ctrls1.avgQLat                    21136.28                       # Average queueing delay per DRAM burst
system.mem_ctrls1.avgBusLat                   5000.00                       # Average bus latency per DRAM burst
system.mem_ctrls1.avgMemAccLat               39886.28                       # Average memory access latency per DRAM burst
system.mem_ctrls1.avgRdBW                      164.89                       # Average DRAM read bandwidth in MiByte/s
system.mem_ctrls1.avgWrBW                       69.31                       # Average achieved write bandwidth in MiByte/s
system.mem_ctrls1.avgRdBWSys                   165.00                       # Average system read bandwidth in MiByte/s
system.mem_ctrls1.avgWrBWSys                    69.31                       # Average system write bandwidth in MiByte/s
system.mem_ctrls1.peakBW                     12800.00                       # Theoretical peak bandwidth in MiByte/s
system.mem_ctrls1.busUtil                        1.83                       # Data bus utilization in percentage
system.mem_ctrls1.busUtilRead                    1.29                       # Data bus utilization in percentage for reads
system.mem_ctrls1.busUtilWrite                   0.54                       # Data bus utilization in percentage for writes
system.mem_ctrls1.avgRdQLen                      1.02                       # Average read queue length when enqueuing
system.mem_ctrls1.avgWrQLen                     24.73                       # Average write queue length when enqueuing
system.mem_ctrls1.readRowHits                 3804484                       # Number of row buffer hits during reads
system.mem_ctrls1.writeRowHits                  60694                       # Number of row buffer hits during writes
system.mem_ctrls1.readRowHitRate                50.27                       # Row buffer hit rate for reads
system.mem_ctrls1.writeRowHitRate                1.91                       # Row buffer hit rate for writes
system.mem_ctrls1.avgGap                    273144.18                       # Average gap between requests
system.mem_ctrls1.pageHitRate                   35.96                       # Row buffer hit rate, read and write combined
system.mem_ctrls1_0.actEnergy             24547834080                       # Energy for activate commands per rank (pJ)
system.mem_ctrls1_0.preEnergy             13047468060                       # Energy for precharge commands per rank (pJ)
system.mem_ctrls1_0.readEnergy            27028055880                       # Energy for read commands per rank (pJ)
system.mem_ctrls1_0.writeEnergy            8280209340                       # Energy for write commands per rank (pJ)
system.mem_ctrls1_0.refreshEnergy        233113898160.000061                       # Energy for refresh commands per rank (pJ)
system.mem_ctrls1_0.actBackEnergy        173882276250                       # Energy for active background per rank (pJ)
system.mem_ctrls1_0.preBackEnergy          5581063200                       # Energy for precharge background per rank (pJ)
system.mem_ctrls1_0.actPowerDownEnergy   997900317270                       # Energy for active power-down per rank (pJ)
system.mem_ctrls1_0.prePowerDownEnergy   126630016320                       # Energy for precharge power-down per rank (pJ)
system.mem_ctrls1_0.selfRefreshEnergy      8615471625                       # Energy for self refresh per rank (pJ)
system.mem_ctrls1_0.totalEnergy          1618651894245                       # Total energy per rank (pJ)
system.mem_ctrls1_0.averagePower           551.037526                       # Core power per rank (mW)
system.mem_ctrls1_0.totalIdleTime        2541550883801                       # Total Idle time Per DRAM Rank
system.mem_ctrls1_0.memoryStateTime::IDLE   3588173648                       # Time in different power states
system.mem_ctrls1_0.memoryStateTime::REF  98644842000                       # Time in different power states
system.mem_ctrls1_0.memoryStateTime::SREF  23407492497                       # Time in different power states
system.mem_ctrls1_0.memoryStateTime::PRE_PDN 329764134386                       # Time in different power states
system.mem_ctrls1_0.memoryStateTime::ACT 293677279417                       # Time in different power states
system.mem_ctrls1_0.memoryStateTime::ACT_PDN 2188380247147                       # Time in different power states
system.mem_ctrls1_1.actEnergy             24604054440                       # Energy for activate commands per rank (pJ)
system.mem_ctrls1_1.preEnergy             13077361275                       # Energy for precharge commands per rank (pJ)
system.mem_ctrls1_1.readEnergy            27008285220                       # Energy for read commands per rank (pJ)
system.mem_ctrls1_1.writeEnergy            8325033480                       # Energy for write commands per rank (pJ)
system.mem_ctrls1_1.refreshEnergy        233203635600.000061                       # Energy for refresh commands per rank (pJ)
system.mem_ctrls1_1.actBackEnergy        174305388390                       # Energy for active background per rank (pJ)
system.mem_ctrls1_1.preBackEnergy          5605272000                       # Energy for precharge background per rank (pJ)
system.mem_ctrls1_1.actPowerDownEnergy   994712145390                       # Energy for active power-down per rank (pJ)
system.mem_ctrls1_1.prePowerDownEnergy   128453181120                       # Energy for precharge power-down per rank (pJ)
system.mem_ctrls1_1.selfRefreshEnergy      9098491650                       # Energy for self refresh per rank (pJ)
system.mem_ctrls1_1.totalEnergy          1618421321055                       # Total energy per rank (pJ)
system.mem_ctrls1_1.averagePower           550.959031                       # Core power per rank (mW)
system.mem_ctrls1_1.totalIdleTime        2540555499937                       # Total Idle time Per DRAM Rank
system.mem_ctrls1_1.memoryStateTime::IDLE   3678640480                       # Time in different power states
system.mem_ctrls1_1.memoryStateTime::REF  98684980000                       # Time in different power states
system.mem_ctrls1_1.memoryStateTime::SREF  24653331885                       # Time in different power states
system.mem_ctrls1_1.memoryStateTime::PRE_PDN 334513326469                       # Time in different power states
system.mem_ctrls1_1.memoryStateTime::ACT 294542569932                       # Time in different power states
system.mem_ctrls1_1.memoryStateTime::ACT_PDN 2181389320329                       # Time in different power states
system.pwrStateResidencyTicks::UNDEFINED 129890458693827                       # Cumulative time (in ticks) in various power states
system.cpu.branchPred.lookups                       3                       # Number of BP lookups
system.cpu.branchPred.condPredicted                 3                       # Number of conditional branches predicted
system.cpu.branchPred.condIncorrect                 1                       # Number of conditional branches incorrect
system.cpu.branchPred.BTBLookups                    0                       # Number of BTB lookups
system.cpu.branchPred.BTBHits                       0                       # Number of BTB hits
system.cpu.branchPred.BTBCorrect                    0                       # Number of correct BTB predictions (this stat may not work properly.
system.cpu.branchPred.BTBHitPct                   nan                       # BTB Hit Percentage
system.cpu.branchPred.usedRAS                       0                       # Number of times the RAS was used to get a target.
system.cpu.branchPred.RASInCorrect                  0                       # Number of incorrect RAS predictions.
system.cpu.branchPred.indirectLookups               0                       # Number of indirect predictor lookups.
system.cpu.branchPred.indirectHits                  0                       # Number of indirect target hits.
system.cpu.branchPred.indirectMisses                0                       # Number of indirect misses.
system.cpu.branchPredindirectMispredicted            0                       # Number of mispredicted indirect branches.
system.cpu_voltage_domain.voltage                   1                       # Voltage in Volts
system.cpu_clk_domain.clock                       333                       # Clock period in ticks
system.cpu.dtb.fetch_hits                           0                       # ITB hits
system.cpu.dtb.fetch_misses                         0                       # ITB misses
system.cpu.dtb.fetch_acv                            0                       # ITB acv
system.cpu.dtb.fetch_accesses                       0                       # ITB accesses
system.cpu.dtb.read_hits                            2                       # DTB read hits
system.cpu.dtb.read_misses                          0                       # DTB read misses
system.cpu.dtb.read_acv                             0                       # DTB read access violations
system.cpu.dtb.read_accesses                        2                       # DTB read accesses
system.cpu.dtb.write_hits                           0                       # DTB write hits
system.cpu.dtb.write_misses                         0                       # DTB write misses
system.cpu.dtb.write_acv                            0                       # DTB write access violations
system.cpu.dtb.write_accesses                       0                       # DTB write accesses
system.cpu.dtb.data_hits                            2                       # DTB hits
system.cpu.dtb.data_misses                          0                       # DTB misses
system.cpu.dtb.data_acv                             0                       # DTB access violations
system.cpu.dtb.data_accesses                        2                       # DTB accesses
system.cpu.itb.fetch_hits                           3                       # ITB hits
system.cpu.itb.fetch_misses                         0                       # ITB misses
system.cpu.itb.fetch_acv                            0                       # ITB acv
system.cpu.itb.fetch_accesses                       3                       # ITB accesses
system.cpu.itb.read_hits                            0                       # DTB read hits
system.cpu.itb.read_misses                          0                       # DTB read misses
system.cpu.itb.read_acv                             0                       # DTB read access violations
system.cpu.itb.read_accesses                        0                       # DTB read accesses
system.cpu.itb.write_hits                           0                       # DTB write hits
system.cpu.itb.write_misses                         0                       # DTB write misses
system.cpu.itb.write_acv                            0                       # DTB write access violations
system.cpu.itb.write_accesses                       0                       # DTB write accesses
system.cpu.itb.data_hits                            0                       # DTB hits
system.cpu.itb.data_misses                          0                       # DTB misses
system.cpu.itb.data_acv                             0                       # DTB access violations
system.cpu.itb.data_accesses                        0                       # DTB accesses
system.cpu.workload.num_syscalls                    0                       # Number of system calls
system.cpu.pwrStateResidencyTicks::ON    2937462169095                       # Cumulative time (in ticks) in various power states
system.cpu.numCycles                              372                       # number of cpu cycles simulated
system.cpu.numWorkItemsStarted                      0                       # number of work items this cpu started
system.cpu.numWorkItemsCompleted                    0                       # number of work items this cpu completed
system.cpu.fetch.icacheStallCycles                 19                       # Number of cycles fetch is stalled on an Icache miss
system.cpu.fetch.Insts                              9                       # Number of instructions fetch has processed
system.cpu.fetch.Branches                           3                       # Number of branches that fetch encountered
system.cpu.fetch.Cycles                             2                       # Number of cycles fetch has run and was not squashing or blocked
system.cpu.fetch.SquashCycles                       5                       # Number of cycles fetch has spent squashing
system.cpu.fetch.PendingDrainCycles                 3                       # Number of cycles fetch has spent waiting on pipes to drain
system.cpu.fetch.CacheLines                         3                       # Number of cache lines fetched
system.cpu.fetch.IcacheSquashes                     2                       # Number of outstanding Icache misses that were squashed
system.cpu.fetch.rateDist::samples                 26                       # Number of instructions fetched each cycle (Total)
system.cpu.fetch.rateDist::mean              0.346154                       # Number of instructions fetched each cycle (Total)
system.cpu.fetch.rateDist::stdev             1.573336                       # Number of instructions fetched each cycle (Total)
system.cpu.fetch.rateDist::underflows               0      0.00%      0.00% # Number of instructions fetched each cycle (Total)
system.cpu.fetch.rateDist::0                       24     92.31%     92.31% # Number of instructions fetched each cycle (Total)
system.cpu.fetch.rateDist::1                        1      3.85%     96.15% # Number of instructions fetched each cycle (Total)
system.cpu.fetch.rateDist::2                        0      0.00%     96.15% # Number of instructions fetched each cycle (Total)
system.cpu.fetch.rateDist::3                        0      0.00%     96.15% # Number of instructions fetched each cycle (Total)
system.cpu.fetch.rateDist::4                        0      0.00%     96.15% # Number of instructions fetched each cycle (Total)
system.cpu.fetch.rateDist::5                        0      0.00%     96.15% # Number of instructions fetched each cycle (Total)
system.cpu.fetch.rateDist::6                        0      0.00%     96.15% # Number of instructions fetched each cycle (Total)
system.cpu.fetch.rateDist::7                        0      0.00%     96.15% # Number of instructions fetched each cycle (Total)
system.cpu.fetch.rateDist::8                        1      3.85%    100.00% # Number of instructions fetched each cycle (Total)
system.cpu.fetch.rateDist::overflows                0      0.00%    100.00% # Number of instructions fetched each cycle (Total)
system.cpu.fetch.rateDist::min_value                0                       # Number of instructions fetched each cycle (Total)
system.cpu.fetch.rateDist::max_value                8                       # Number of instructions fetched each cycle (Total)
system.cpu.fetch.rateDist::total                   26                       # Number of instructions fetched each cycle (Total)
system.cpu.fetch.branchRate                  0.008065                       # Number of branch fetches per cycle
system.cpu.fetch.rate                        0.024194                       # Number of inst fetches per cycle
system.cpu.decode.IdleCycles                       21                       # Number of cycles decode is idle
[...]
system.switch_cpus_1.iq.int_inst_queue_wakeup_accesses    320732200                       # Number of integer instruction queue wakeup accesses
system.switch_cpus_1.iq.fp_inst_queue_reads     69839755                       # Number of floating instruction queue reads
system.switch_cpus_1.iq.fp_inst_queue_writes    112121584                       # Number of floating instruction queue writes
system.switch_cpus_1.iq.fp_inst_queue_wakeup_accesses     28762159                       # Number of floating instruction queue wakeup accesses
system.switch_cpus_1.iq.int_alu_accesses    351361803                       # Number of integer alu accesses
system.switch_cpus_1.iq.fp_alu_accesses      35115934                       # Number of floating point alu accesses
system.switch_cpus_1.iew.lsq.thread0.forwLoads      9372216                       # Number of loads that had data forwarded from stores
system.switch_cpus_1.iew.lsq.thread0.invAddrLoads            0                       # Number of loads ignored due to an invalid address
system.switch_cpus_1.iew.lsq.thread0.squashedLoads     68190255                       # Number of loads squashed
system.switch_cpus_1.iew.lsq.thread0.ignoredResponses        27101                       # Number of memory responses ignored because the instruction is squashed
system.switch_cpus_1.iew.lsq.thread0.memOrderViolation        11160                       # Number of memory ordering violations
system.switch_cpus_1.iew.lsq.thread0.squashedStores     29549488                       # Number of stores squashed
system.switch_cpus_1.iew.lsq.thread0.invAddrSwpfs            0                       # Number of software prefetches ignored due to an invalid address
system.switch_cpus_1.iew.lsq.thread0.blockedLoads            0                       # Number of blocked loads due to partial load-store forwarding
system.switch_cpus_1.iew.lsq.thread0.rescheduledLoads          389                       # Number of loads that were rescheduled
system.switch_cpus_1.iew.lsq.thread0.cacheBlocked      2593448                       # Number of times an access to memory failed due to the cache being blocked
system.switch_cpus_1.iew.iewIdleCycles              0                       # Number of cycles IEW is idle
system.switch_cpus_1.iew.iewSquashCycles      3814150                       # Number of cycles IEW is squashing
system.switch_cpus_1.iew.iewBlockCycles     193926051                       # Number of cycles IEW is blocking
system.switch_cpus_1.iew.iewUnblockCycles    110832023                       # Number of cycles IEW is unblocking
system.switch_cpus_1.iew.iewDispatchedInsts    487348489                       # Number of instructions dispatched to IQ
system.switch_cpus_1.iew.iewDispSquashedInsts       130316                       # Number of squashed instructions skipped by dispatch
system.switch_cpus_1.iew.iewDispLoadInsts    115917511                       # Number of dispatched load instructions
system.switch_cpus_1.iew.iewDispStoreInsts     58778315                       # Number of dispatched store instructions
system.switch_cpus_1.iew.iewDispNonSpecInsts       528860                       # Number of dispatched non-speculative instructions
system.switch_cpus_1.iew.iewIQFullEvents      1277761                       # Number of times the IQ has become full, causing a stall
system.switch_cpus_1.iew.iewLSQFullEvents    109292633                       # Number of times the LSQ has become full, causing a stall
system.switch_cpus_1.iew.memOrderViolationEvents        11160                       # Number of memory order violations
system.switch_cpus_1.iew.predictedTakenIncorrect       758238                       # Number of branches that were predicted taken incorrectly
system.switch_cpus_1.iew.predictedNotTakenIncorrect      1143915                       # Number of branches that were predicted not taken incorrectly
system.switch_cpus_1.iew.branchMispredicts      1902153                       # Number of branch mispredicts detected at execute
system.switch_cpus_1.iew.iewExecutedInsts    375290732                       # Number of executed instructions
system.switch_cpus_1.iew.iewExecLoadInsts    102518027                       # Number of load instructions executed
system.switch_cpus_1.iew.iewExecSquashedInsts      4147657                       # Number of squashed instructions skipped in execute
system.switch_cpus_1.iew.exec_swp                   0                       # number of swp insts executed
system.switch_cpus_1.iew.exec_nop            23220500                       # number of nop insts executed
system.switch_cpus_1.iew.exec_refs          154828942                       # number of memory reference insts executed
system.switch_cpus_1.iew.exec_branches       72550092                       # Number of branches executed
system.switch_cpus_1.iew.exec_stores         52310915                       # Number of stores executed
system.switch_cpus_1.iew.exec_rate           0.446892                       # Inst execution rate
system.switch_cpus_1.iew.wb_sent            369966200                       # cumulative count of insts sent to commit
system.switch_cpus_1.iew.wb_count           349494359                       # cumulative count of insts written-back
system.switch_cpus_1.iew.wb_producers       176910039                       # num instructions producing a value
system.switch_cpus_1.iew.wb_consumers       259569893                       # num instructions consuming a value
system.switch_cpus_1.iew.wb_rate             0.416174                       # insts written-back per cycle
system.switch_cpus_1.iew.wb_fanout           0.681551                       # average fanout of values written-back
system.switch_cpus_1.commit.commitSquashedInsts    230672182                       # The number of squashed insts skipped by commit
system.switch_cpus_1.commit.commitNonSpecStalls       665598                       # The number of times commit has been forced to stall to communicate backwards
system.switch_cpus_1.commit.branchMispredicts      1460648                       # The number of times a branch was mispredicted
system.switch_cpus_1.commit.committed_per_cycle::samples    805984464                       # Number of insts commited each cycle
system.switch_cpus_1.commit.committed_per_cycle::mean     0.265011                       # Number of insts commited each cycle
system.switch_cpus_1.commit.committed_per_cycle::stdev     1.251012                       # Number of insts commited each cycle
system.switch_cpus_1.commit.committed_per_cycle::underflows            0      0.00%      0.00% # Number of insts commited each cycle
system.switch_cpus_1.commit.committed_per_cycle::0    751820651     93.28%     93.28% # Number of insts commited each cycle
system.switch_cpus_1.commit.committed_per_cycle::1     19862679      2.46%     95.74% # Number of insts commited each cycle
system.switch_cpus_1.commit.committed_per_cycle::2      6003607      0.74%     96.49% # Number of insts commited each cycle
system.switch_cpus_1.commit.committed_per_cycle::3      3725555      0.46%     96.95% # Number of insts commited each cycle
system.switch_cpus_1.commit.committed_per_cycle::4      3282970      0.41%     97.36% # Number of insts commited each cycle
system.switch_cpus_1.commit.committed_per_cycle::5      2532979      0.31%     97.67% # Number of insts commited each cycle
system.switch_cpus_1.commit.committed_per_cycle::6      1903758      0.24%     97.91% # Number of insts commited each cycle
system.switch_cpus_1.commit.committed_per_cycle::7      1489591      0.18%     98.09% # Number of insts commited each cycle
system.switch_cpus_1.commit.committed_per_cycle::8     15362674      1.91%    100.00% # Number of insts commited each cycle
system.switch_cpus_1.commit.committed_per_cycle::overflows            0      0.00%    100.00% # Number of insts commited each cycle
system.switch_cpus_1.commit.committed_per_cycle::min_value            0                       # Number of insts commited each cycle
system.switch_cpus_1.commit.committed_per_cycle::max_value            8                       # Number of insts commited each cycle
system.switch_cpus_1.commit.committed_per_cycle::total    805984464                       # Number of insts commited each cycle
system.switch_cpus_1.commit.committedInsts    213594410                       # Number of instructions committed
system.switch_cpus_1.commit.committedOps    213594410                       # Number of ops (including micro ops) committed
system.switch_cpus_1.commit.swp_count               0                       # Number of s/w prefetches committed
system.switch_cpus_1.commit.refs             76956073                       # Number of memory references committed
system.switch_cpus_1.commit.loads            47727246                       # Number of loads committed
system.switch_cpus_1.commit.membars            332799                       # Number of memory barriers committed
system.switch_cpus_1.commit.branches         42872050                       # Number of branches committed
system.switch_cpus_1.commit.fp_insts         19258208                       # Number of committed floating point instructions.
system.switch_cpus_1.commit.int_insts       185197309                       # Number of committed integer instructions.
system.switch_cpus_1.commit.function_calls      6276853                       # Number of function calls committed.
system.switch_cpus_1.commit.op_class_0::No_OpClass     13768422      6.45%      6.45% # Class of committed instruction
system.switch_cpus_1.commit.op_class_0::IntAlu    110964867     51.95%     58.40% # Class of committed instruction
system.switch_cpus_1.commit.op_class_0::IntMult        87084      0.04%     58.44% # Class of committed instruction
system.switch_cpus_1.commit.op_class_0::IntDiv            0      0.00%     58.44% # Class of committed instruction
system.switch_cpus_1.commit.op_class_0::FloatAdd      6284834      2.94%     61.38% # Class of committed instruction
system.switch_cpus_1.commit.op_class_0::FloatCmp      4706081      2.20%     63.58% # Class of committed instruction
system.switch_cpus_1.commit.op_class_0::FloatCvt       352967      0.17%     63.75% # Class of committed instruction
system.switch_cpus_1.commit.op_class_0::FloatMult        54220      0.03%     63.77% # Class of committed instruction
system.switch_cpus_1.commit.op_class_0::FloatMultAcc            0      0.00%     63.77% # Class of committed instruction
system.switch_cpus_1.commit.op_class_0::FloatDiv        87048      0.04%     63.82% # Class of committed instruction
system.switch_cpus_1.commit.op_class_0::FloatMisc            0      0.00%     63.82% # Class of committed instruction
system.switch_cpus_1.commit.op_class_0::FloatSqrt           15      0.00%     63.82% # Class of committed instruction
system.switch_cpus_1.commit.op_class_0::SimdAdd            0      0.00%     63.82% # Class of committed instruction
system.switch_cpus_1.commit.op_class_0::SimdAddAcc            0      0.00%     63.82% # Class of committed instruction
system.switch_cpus_1.commit.op_class_0::SimdAlu            0      0.00%     63.82% # Class of committed instruction
system.switch_cpus_1.commit.op_class_0::SimdCmp            0      0.00%     63.82% # Class of committed instruction
system.switch_cpus_1.commit.op_class_0::SimdCvt            0      0.00%     63.82% # Class of committed instruction
system.switch_cpus_1.commit.op_class_0::SimdMisc            0      0.00%     63.82% # Class of committed instruction
system.switch_cpus_1.commit.op_class_0::SimdMult            0      0.00%     63.82% # Class of committed instruction
system.switch_cpus_1.commit.op_class_0::SimdMultAcc            0      0.00%     63.82% # Class of committed instruction
system.switch_cpus_1.commit.op_class_0::SimdShift            0      0.00%     63.82% # Class of committed instruction
system.switch_cpus_1.commit.op_class_0::SimdShiftAcc            0      0.00%     63.82% # Class of committed instruction
system.switch_cpus_1.commit.op_class_0::SimdSqrt            0      0.00%     63.82% # Class of committed instruction
system.switch_cpus_1.commit.op_class_0::SimdFloatAdd            0      0.00%     63.82% # Class of committed instruction
system.switch_cpus_1.commit.op_class_0::SimdFloatAlu            0      0.00%     63.82% # Class of committed instruction
system.switch_cpus_1.commit.op_class_0::SimdFloatCmp            0      0.00%     63.82% # Class of committed instruction
system.switch_cpus_1.commit.op_class_0::SimdFloatCvt            0      0.00%     63.82% # Class of committed instruction
system.switch_cpus_1.commit.op_class_0::SimdFloatDiv            0      0.00%     63.82% # Class of committed instruction
system.switch_cpus_1.commit.op_class_0::SimdFloatMisc            0      0.00%     63.82% # Class of committed instruction
system.switch_cpus_1.commit.op_class_0::SimdFloatMult            0      0.00%     63.82% # Class of committed instruction
system.switch_cpus_1.commit.op_class_0::SimdFloatMultAcc            0      0.00%     63.82% # Class of committed instruction
system.switch_cpus_1.commit.op_class_0::SimdFloatSqrt            0      0.00%     63.82% # Class of committed instruction
system.switch_cpus_1.commit.op_class_0::MemRead     41999437     19.66%     83.48% # Class of committed instruction
system.switch_cpus_1.commit.op_class_0::MemWrite     27516392     12.88%     96.36% # Class of committed instruction
system.switch_cpus_1.commit.op_class_0::FloatMemRead      6060608      2.84%     99.20% # Class of committed instruction
system.switch_cpus_1.commit.op_class_0::FloatMemWrite      1712435      0.80%    100.00% # Class of committed instruction
system.switch_cpus_1.commit.op_class_0::IprAccess            0      0.00%    100.00% # Class of committed instruction
system.switch_cpus_1.commit.op_class_0::InstPrefetch            0      0.00%    100.00% # Class of committed instruction
system.switch_cpus_1.commit.op_class_0::total    213594410                       # Class of committed instruction
system.switch_cpus_1.commit.bw_lim_events     15362674                       # number cycles where commit BW limit reached
system.switch_cpus_1.rob.rob_reads         1204407035                       # The number of ROB reads
system.switch_cpus_1.rob.rob_writes         920459793                       # The number of ROB writes
system.switch_cpus_1.timesIdled                 22364                       # Number of times that the entire CPU went into an idle state and unscheduled itself
system.switch_cpus_1.idleCycles               1922598                       # Total number of cycles that the CPU has spent unscheduled due to idling
system.switch_cpus_1.committedInsts         200000000                       # Number of Instructions Simulated
system.switch_cpus_1.committedOps           200000000                       # Number of Ops (including micro ops) Simulated
system.switch_cpus_1.cpi                     4.198896                       # CPI: Cycles Per Instruction
system.switch_cpus_1.cpi_total               4.198896                       # CPI: Total CPI of All Threads
system.switch_cpus_1.ipc                     0.238158                       # IPC: Instructions Per Cycle
system.switch_cpus_1.ipc_total               0.238158                       # IPC: Total IPC of All Threads
system.switch_cpus_1.int_regfile_reads      475950981                       # number of integer regfile reads
system.switch_cpus_1.int_regfile_writes     219097310                       # number of integer regfile writes
system.switch_cpus_1.fp_regfile_reads        26329964                       # number of floating regfile reads
system.switch_cpus_1.fp_regfile_writes       19796079                       # number of floating regfile writes
system.switch_cpus_1.misc_regfile_reads        925554                       # number of misc regfile reads
system.switch_cpus_1.misc_regfile_writes       752604                       # number of misc regfile writes
system.tol3bus.snoop_filter.tot_requests     44293685                       # Total number of requests made to the snoop filter.
system.tol3bus.snoop_filter.hit_single_requests     22147079                       # Number of requests hitting in the snoop filter with a single holder of the requested data.
system.tol3bus.snoop_filter.hit_multi_requests            0                       # Number of requests hitting in the snoop filter with multiple (>1) holders of the requested data.
system.tol3bus.snoop_filter.tot_snoops         383026                       # Total number of snoops made to the snoop filter.
system.tol3bus.snoop_filter.hit_single_snoops       383026                       # Number of snoops hitting in the snoop filter with a single holder of the requested data.
system.tol3bus.snoop_filter.hit_multi_snoops            0                       # Number of snoops hitting in the snoop filter with multiple (>1) holders of the requested data.
system.tol3bus.pwrStateResidencyTicks::UNDEFINED 129890458693827                       # Cumulative time (in ticks) in various power states
system.tol3bus.trans_dist::ReadResp          18861882                       # Transaction distribution
system.tol3bus.trans_dist::WritebackDirty     17132876                       # Transaction distribution
system.tol3bus.trans_dist::CleanEvict        20225937                       # Transaction distribution
system.tol3bus.trans_dist::UpgradeReq            1823                       # Transaction distribution
system.tol3bus.trans_dist::UpgradeResp           1823                       # Transaction distribution
system.tol3bus.trans_dist::ReadExReq          3284724                       # Transaction distribution
system.tol3bus.trans_dist::ReadExResp         3284724                       # Transaction distribution
system.tol3bus.trans_dist::ReadSharedReq     18861882                       # Transaction distribution
system.tol3bus.pkt_count_system.cpu.l2.mem_side::system.l3.cpu_side     66442114                       # Packet count per connected master and slave (bytes)
system.tol3bus.pkt_size_system.cpu.l2.mem_side::system.l3.cpu_side   2106039168                       # Cumulative packet size per connected master and slave (bytes)
system.tol3bus.snoops                        15213557                       # Total snoops (count)
system.tol3bus.snoopTraffic                 407847680                       # Total snoop traffic (bytes)
system.tol3bus.snoop_fanout::samples         37361986                       # Request fanout histogram
system.tol3bus.snoop_fanout::mean            0.010252                       # Request fanout histogram
system.tol3bus.snoop_fanout::stdev           0.100731                       # Request fanout histogram
system.tol3bus.snoop_fanout::underflows             0      0.00%      0.00% # Request fanout histogram
system.tol3bus.snoop_fanout::0               36978960     98.97%     98.97% # Request fanout histogram
system.tol3bus.snoop_fanout::1                 383026      1.03%    100.00% # Request fanout histogram
system.tol3bus.snoop_fanout::overflows              0      0.00%    100.00% # Request fanout histogram
system.tol3bus.snoop_fanout::min_value              0                       # Request fanout histogram
system.tol3bus.snoop_fanout::max_value              1                       # Request fanout histogram
system.tol3bus.snoop_fanout::total           37361986                       # Request fanout histogram
system.tol3bus.reqLayer0.occupancy        18332962353                       # Layer occupancy (ticks)
system.tol3bus.reqLayer0.utilization              0.6                       # Layer utilization (%)
system.tol3bus.respLayer0.occupancy       14750246655                       # Layer occupancy (ticks)
system.tol3bus.respLayer0.utilization             0.5                       # Layer utilization (%)

---------- End Simulation Statistics   ----------
