
---------- Begin Simulation Statistics ----------
sim_seconds                                 13.002069                       # Number of seconds simulated
sim_ticks                                13002069152673                       # Number of ticks simulated
final_tick                               175084252315173                       # Number of ticks from beginning of simulation (restored from checkpoints and never reset)
sim_freq                                 1000000000000                       # Frequency of simulated ticks
host_inst_rate                                  34721                       # Simulator instruction rate (inst/s)
host_op_rate                                    34721                       # Simulator op (including micro ops) rate (op/s)
host_tick_rate                              376200423                       # Simulator tick rate (ticks/s)
host_mem_usage                                2689544                       # Number of bytes of host memory used
host_seconds                                 34561.55                       # Real time elapsed on the host
sim_insts                                  1200000012                       # Number of instructions simulated
sim_ops                                    1200000012                       # Number of ops (including micro ops) simulated
system.voltage_domain.voltage                       1                       # Voltage in Volts
system.clk_domain.clock                          1000                       # Clock period in ticks
system.mem_ctrls0.pwrStateResidencyTicks::UNDEFINED 175084252315173                       # Cumulative time (in ticks) in various power states
system.mem_ctrls0.bytes_read::cpu.inst            128                       # Number of bytes read from this memory
system.mem_ctrls0.bytes_read::switch_cpus.inst         1472                       # Number of bytes read from this memory
system.mem_ctrls0.bytes_read::switch_cpus.data   1818450432                       # Number of bytes read from this memory
system.mem_ctrls0.bytes_read::switch_cpus_1.inst          128                       # Number of bytes read from this memory
system.mem_ctrls0.bytes_read::switch_cpus_1.data    362384192                       # Number of bytes read from this memory
system.mem_ctrls0.bytes_read::total        2180836352                       # Number of bytes read from this memory
system.mem_ctrls0.bytes_inst_read::cpu.inst          128                       # Number of instructions bytes read from this memory
system.mem_ctrls0.bytes_inst_read::switch_cpus.inst         1472                       # Number of instructions bytes read from this memory
system.mem_ctrls0.bytes_inst_read::switch_cpus_1.inst          128                       # Number of instructions bytes read from this memory
system.mem_ctrls0.bytes_inst_read::total         1728                       # Number of instructions bytes read from this memory
system.mem_ctrls0.bytes_written::writebacks      3517376                       # Number of bytes written to this memory
system.mem_ctrls0.bytes_written::total        3517376                       # Number of bytes written to this memory
system.mem_ctrls0.num_reads::cpu.inst               2                       # Number of read requests responded to by this memory
system.mem_ctrls0.num_reads::switch_cpus.inst           23                       # Number of read requests responded to by this memory
system.mem_ctrls0.num_reads::switch_cpus.data     28413288                       # Number of read requests responded to by this memory
system.mem_ctrls0.num_reads::switch_cpus_1.inst            2                       # Number of read requests responded to by this memory
system.mem_ctrls0.num_reads::switch_cpus_1.data      5662253                       # Number of read requests responded to by this memory
system.mem_ctrls0.num_reads::total           34075568                       # Number of read requests responded to by this memory
system.mem_ctrls0.num_writes::writebacks        54959                       # Number of write requests responded to by this memory
system.mem_ctrls0.num_writes::total             54959                       # Number of write requests responded to by this memory
system.mem_ctrls0.bw_read::cpu.inst                10                       # Total read bandwidth from this memory (bytes/s)
system.mem_ctrls0.bw_read::switch_cpus.inst          113                       # Total read bandwidth from this memory (bytes/s)
system.mem_ctrls0.bw_read::switch_cpus.data    139858542                       # Total read bandwidth from this memory (bytes/s)
system.mem_ctrls0.bw_read::switch_cpus_1.inst           10                       # Total read bandwidth from this memory (bytes/s)
system.mem_ctrls0.bw_read::switch_cpus_1.data     27871271                       # Total read bandwidth from this memory (bytes/s)
system.mem_ctrls0.bw_read::total            167729946                       # Total read bandwidth from this memory (bytes/s)
system.mem_ctrls0.bw_inst_read::cpu.inst           10                       # Instruction read bandwidth from this memory (bytes/s)
system.mem_ctrls0.bw_inst_read::switch_cpus.inst          113                       # Instruction read bandwidth from this memory (bytes/s)
system.mem_ctrls0.bw_inst_read::switch_cpus_1.inst           10                       # Instruction read bandwidth from this memory (bytes/s)
system.mem_ctrls0.bw_inst_read::total             133                       # Instruction read bandwidth from this memory (bytes/s)
system.mem_ctrls0.bw_write::writebacks         270524                       # Write bandwidth from this memory (bytes/s)
system.mem_ctrls0.bw_write::total              270524                       # Write bandwidth from this memory (bytes/s)
system.mem_ctrls0.bw_total::writebacks         270524                       # Total bandwidth to/from this memory (bytes/s)
system.mem_ctrls0.bw_total::cpu.inst               10                       # Total bandwidth to/from this memory (bytes/s)
system.mem_ctrls0.bw_total::switch_cpus.inst          113                       # Total bandwidth to/from this memory (bytes/s)
system.mem_ctrls0.bw_total::switch_cpus.data    139858542                       # Total bandwidth to/from this memory (bytes/s)
system.mem_ctrls0.bw_total::switch_cpus_1.inst           10                       # Total bandwidth to/from this memory (bytes/s)
system.mem_ctrls0.bw_total::switch_cpus_1.data     27871271                       # Total bandwidth to/from this memory (bytes/s)
system.mem_ctrls0.bw_total::total           168000470                       # Total bandwidth to/from this memory (bytes/s)
system.mem_ctrls0.readReqs                   34075568                       # Number of read requests accepted
system.mem_ctrls0.writeReqs                     54959                       # Number of write requests accepted
system.mem_ctrls0.readBursts                 34075568                       # Number of DRAM read bursts, including those serviced by the write queue
system.mem_ctrls0.writeBursts                   54959                       # Number of DRAM write bursts, including those merged in the write queue
system.mem_ctrls0.bytesReadDRAM            2180491584                       # Total number of bytes read from DRAM
system.mem_ctrls0.bytesReadWrQ                 344768                       # Total number of bytes read from write queue
system.mem_ctrls0.bytesWritten                3497920                       # Total number of bytes written to DRAM
system.mem_ctrls0.bytesReadSys             2180836352                       # Total read bytes from the system interface side
system.mem_ctrls0.bytesWrittenSys             3517376                       # Total written bytes from the system interface side
system.mem_ctrls0.servicedByWrQ                  5387                       # Number of DRAM read bursts serviced by the write queue
system.mem_ctrls0.mergedWrBursts                  276                       # Number of DRAM write bursts merged with an existing one
system.mem_ctrls0.neitherReadNorWriteReqs            0                       # Number of requests that are neither read nor write
system.mem_ctrls0.perBankRdBursts::0          2124921                       # Per bank write bursts
system.mem_ctrls0.perBankRdBursts::1          2128134                       # Per bank write bursts
system.mem_ctrls0.perBankRdBursts::2          2132622                       # Per bank write bursts
system.mem_ctrls0.perBankRdBursts::3          2126975                       # Per bank write bursts
system.mem_ctrls0.perBankRdBursts::4          2129429                       # Per bank write bursts
system.mem_ctrls0.perBankRdBursts::5          2125528                       # Per bank write bursts
system.mem_ctrls0.perBankRdBursts::6          2136061                       # Per bank write bursts
system.mem_ctrls0.perBankRdBursts::7          2128259                       # Per bank write bursts
system.mem_ctrls0.perBankRdBursts::8          2138796                       # Per bank write bursts
system.mem_ctrls0.perBankRdBursts::9          2130910                       # Per bank write bursts
system.mem_ctrls0.perBankRdBursts::10         2139850                       # Per bank write bursts
system.mem_ctrls0.perBankRdBursts::11         2129099                       # Per bank write bursts
system.mem_ctrls0.perBankRdBursts::12         2124772                       # Per bank write bursts
system.mem_ctrls0.perBankRdBursts::13         2122617                       # Per bank write bursts
system.mem_ctrls0.perBankRdBursts::14         2135141                       # Per bank write bursts
system.mem_ctrls0.perBankRdBursts::15         2117067                       # Per bank write bursts
system.mem_ctrls0.perBankWrBursts::0             3251                       # Per bank write bursts
system.mem_ctrls0.perBankWrBursts::1             3259                       # Per bank write bursts
system.mem_ctrls0.perBankWrBursts::2             3177                       # Per bank write bursts
system.mem_ctrls0.perBankWrBursts::3             4032                       # Per bank write bursts
system.mem_ctrls0.perBankWrBursts::4             4423                       # Per bank write bursts
system.mem_ctrls0.perBankWrBursts::5             3349                       # Per bank write bursts
system.mem_ctrls0.perBankWrBursts::6             3243                       # Per bank write bursts
system.mem_ctrls0.perBankWrBursts::7             3418                       # Per bank write bursts
system.mem_ctrls0.perBankWrBursts::8             3441                       # Per bank write bursts
system.mem_ctrls0.perBankWrBursts::9             3274                       # Per bank write bursts
system.mem_ctrls0.perBankWrBursts::10            3330                       # Per bank write bursts
system.mem_ctrls0.perBankWrBursts::11            3357                       # Per bank write bursts
system.mem_ctrls0.perBankWrBursts::12            3258                       # Per bank write bursts
system.mem_ctrls0.perBankWrBursts::13            3269                       # Per bank write bursts
system.mem_ctrls0.perBankWrBursts::14            3290                       # Per bank write bursts
system.mem_ctrls0.perBankWrBursts::15            3284                       # Per bank write bursts
system.mem_ctrls0.numRdRetry                        0                       # Number of times read queue was full causing retry
system.mem_ctrls0.numWrRetry                        0                       # Number of times write queue was full causing retry
system.mem_ctrls0.totGap                 13002068313603                       # Total gap between requests
system.mem_ctrls0.readPktSize::0                    0                       # Read request sizes (log2)
system.mem_ctrls0.readPktSize::1                    0                       # Read request sizes (log2)
system.mem_ctrls0.readPktSize::2                    0                       # Read request sizes (log2)
system.mem_ctrls0.readPktSize::3                    0                       # Read request sizes (log2)
system.mem_ctrls0.readPktSize::4                    0                       # Read request sizes (log2)
system.mem_ctrls0.readPktSize::5                    0                       # Read request sizes (log2)
system.mem_ctrls0.readPktSize::6             34075568                       # Read request sizes (log2)
system.mem_ctrls0.writePktSize::0                   0                       # Write request sizes (log2)
system.mem_ctrls0.writePktSize::1                   0                       # Write request sizes (log2)
system.mem_ctrls0.writePktSize::2                   0                       # Write request sizes (log2)
system.mem_ctrls0.writePktSize::3                   0                       # Write request sizes (log2)
system.mem_ctrls0.writePktSize::4                   0                       # Write request sizes (log2)
system.mem_ctrls0.writePktSize::5                   0                       # Write request sizes (log2)
system.mem_ctrls0.writePktSize::6               54959                       # Write request sizes (log2)
system.mem_ctrls0.rdQLenPdf::0               34069673                       # What read queue length does an incoming req see
system.mem_ctrls0.rdQLenPdf::1                    482                       # What read queue length does an incoming req see
system.mem_ctrls0.rdQLenPdf::2                     26                       # What read queue length does an incoming req see
system.mem_ctrls0.rdQLenPdf::3                      0                       # What read queue length does an incoming req see
system.mem_ctrls0.rdQLenPdf::4                      0                       # What read queue length does an incoming req see
system.mem_ctrls0.rdQLenPdf::5                      0                       # What read queue length does an incoming req see
system.mem_ctrls0.rdQLenPdf::6                      0                       # What read queue length does an incoming req see
system.mem_ctrls0.rdQLenPdf::7                      0                       # What read queue length does an incoming req see
system.mem_ctrls0.rdQLenPdf::8                      0                       # What read queue length does an incoming req see
system.mem_ctrls0.rdQLenPdf::9                      0                       # What read queue length does an incoming req see
system.mem_ctrls0.rdQLenPdf::10                     0                       # What read queue length does an incoming req see
system.mem_ctrls0.rdQLenPdf::11                     0                       # What read queue length does an incoming req see
system.mem_ctrls0.rdQLenPdf::12                     0                       # What read queue length does an incoming req see
system.mem_ctrls0.rdQLenPdf::13                     0                       # What read queue length does an incoming req see
system.mem_ctrls0.rdQLenPdf::14                     0                       # What read queue length does an incoming req see
system.mem_ctrls0.rdQLenPdf::15                     0                       # What read queue length does an incoming req see
system.mem_ctrls0.rdQLenPdf::16                     0                       # What read queue length does an incoming req see
system.mem_ctrls0.rdQLenPdf::17                     0                       # What read queue length does an incoming req see
system.mem_ctrls0.rdQLenPdf::18                     0                       # What read queue length does an incoming req see
system.mem_ctrls0.rdQLenPdf::19                     0                       # What read queue length does an incoming req see
system.mem_ctrls0.rdQLenPdf::20                     0                       # What read queue length does an incoming req see
system.mem_ctrls0.rdQLenPdf::21                     0                       # What read queue length does an incoming req see
system.mem_ctrls0.rdQLenPdf::22                     0                       # What read queue length does an incoming req see
system.mem_ctrls0.rdQLenPdf::23                     0                       # What read queue length does an incoming req see
system.mem_ctrls0.rdQLenPdf::24                     0                       # What read queue length does an incoming req see
system.mem_ctrls0.rdQLenPdf::25                     0                       # What read queue length does an incoming req see
system.mem_ctrls0.rdQLenPdf::26                     0                       # What read queue length does an incoming req see
system.mem_ctrls0.rdQLenPdf::27                     0                       # What read queue length does an incoming req see
system.mem_ctrls0.rdQLenPdf::28                     0                       # What read queue length does an incoming req see
system.mem_ctrls0.rdQLenPdf::29                     0                       # What read queue length does an incoming req see
system.mem_ctrls0.rdQLenPdf::30                     0                       # What read queue length does an incoming req see
system.mem_ctrls0.rdQLenPdf::31                     0                       # What read queue length does an incoming req see
system.mem_ctrls0.wrQLenPdf::0                      2                       # What write queue length does an incoming req see
system.mem_ctrls0.wrQLenPdf::1                      2                       # What write queue length does an incoming req see
system.mem_ctrls0.wrQLenPdf::2                      2                       # What write queue length does an incoming req see
system.mem_ctrls0.wrQLenPdf::3                      2                       # What write queue length does an incoming req see
system.mem_ctrls0.wrQLenPdf::4                      2                       # What write queue length does an incoming req see
system.mem_ctrls0.wrQLenPdf::5                      2                       # What write queue length does an incoming req see
system.mem_ctrls0.wrQLenPdf::6                      2                       # What write queue length does an incoming req see
system.mem_ctrls0.wrQLenPdf::7                      2                       # What write queue length does an incoming req see
system.mem_ctrls0.wrQLenPdf::8                      2                       # What write queue length does an incoming req see
system.mem_ctrls0.wrQLenPdf::9                      2                       # What write queue length does an incoming req see
system.mem_ctrls0.wrQLenPdf::10                     2                       # What write queue length does an incoming req see
system.mem_ctrls0.wrQLenPdf::11                     2                       # What write queue length does an incoming req see
system.mem_ctrls0.wrQLenPdf::12                     2                       # What write queue length does an incoming req see
system.mem_ctrls0.wrQLenPdf::13                     2                       # What write queue length does an incoming req see
system.mem_ctrls0.wrQLenPdf::14                     2                       # What write queue length does an incoming req see
system.mem_ctrls0.wrQLenPdf::15                  2082                       # What write queue length does an incoming req see
system.mem_ctrls0.wrQLenPdf::16                  2136                       # What write queue length does an incoming req see
system.mem_ctrls0.wrQLenPdf::17                  3150                       # What write queue length does an incoming req see
system.mem_ctrls0.wrQLenPdf::18                  3155                       # What write queue length does an incoming req see
system.mem_ctrls0.wrQLenPdf::19                  3152                       # What write queue length does an incoming req see
system.mem_ctrls0.wrQLenPdf::20                  3154                       # What write queue length does an incoming req see
system.mem_ctrls0.wrQLenPdf::21                  3152                       # What write queue length does an incoming req see
system.mem_ctrls0.wrQLenPdf::22                  3152                       # What write queue length does an incoming req see
system.mem_ctrls0.wrQLenPdf::23                  3152                       # What write queue length does an incoming req see
system.mem_ctrls0.wrQLenPdf::24                  3154                       # What write queue length does an incoming req see
system.mem_ctrls0.wrQLenPdf::25                  3156                       # What write queue length does an incoming req see
system.mem_ctrls0.wrQLenPdf::26                  3155                       # What write queue length does an incoming req see
system.mem_ctrls0.wrQLenPdf::27                  3152                       # What write queue length does an incoming req see
system.mem_ctrls0.wrQLenPdf::28                  3151                       # What write queue length does an incoming req see
system.mem_ctrls0.wrQLenPdf::29                  3150                       # What write queue length does an incoming req see
system.mem_ctrls0.wrQLenPdf::30                  3150                       # What write queue length does an incoming req see
system.mem_ctrls0.wrQLenPdf::31                  3150                       # What write queue length does an incoming req see
system.mem_ctrls0.wrQLenPdf::32                  3150                       # What write queue length does an incoming req see
system.mem_ctrls0.wrQLenPdf::33                     0                       # What write queue length does an incoming req see
system.mem_ctrls0.wrQLenPdf::34                     0                       # What write queue length does an incoming req see
system.mem_ctrls0.wrQLenPdf::35                     0                       # What write queue length does an incoming req see
system.mem_ctrls0.wrQLenPdf::36                     0                       # What write queue length does an incoming req see
system.mem_ctrls0.wrQLenPdf::37                     0                       # What write queue length does an incoming req see
system.mem_ctrls0.wrQLenPdf::38                     0                       # What write queue length does an incoming req see
system.mem_ctrls0.wrQLenPdf::39                     0                       # What write queue length does an incoming req see
system.mem_ctrls0.wrQLenPdf::40                     0                       # What write queue length does an incoming req see
system.mem_ctrls0.wrQLenPdf::41                     0                       # What write queue length does an incoming req see
system.mem_ctrls0.wrQLenPdf::42                     0                       # What write queue length does an incoming req see
system.mem_ctrls0.wrQLenPdf::43                     0                       # What write queue length does an incoming req see
system.mem_ctrls0.wrQLenPdf::44                     0                       # What write queue length does an incoming req see
system.mem_ctrls0.wrQLenPdf::45                     0                       # What write queue length does an incoming req see
system.mem_ctrls0.wrQLenPdf::46                     0                       # What write queue length does an incoming req see
system.mem_ctrls0.wrQLenPdf::47                     0                       # What write queue length does an incoming req see
system.mem_ctrls0.wrQLenPdf::48                     0                       # What write queue length does an incoming req see
system.mem_ctrls0.wrQLenPdf::49                     0                       # What write queue length does an incoming req see
system.mem_ctrls0.wrQLenPdf::50                     0                       # What write queue length does an incoming req see
system.mem_ctrls0.wrQLenPdf::51                     0                       # What write queue length does an incoming req see
system.mem_ctrls0.wrQLenPdf::52                     0                       # What write queue length does an incoming req see
system.mem_ctrls0.wrQLenPdf::53                     0                       # What write queue length does an incoming req see
system.mem_ctrls0.wrQLenPdf::54                     0                       # What write queue length does an incoming req see
system.mem_ctrls0.wrQLenPdf::55                     0                       # What write queue length does an incoming req see
system.mem_ctrls0.wrQLenPdf::56                     0                       # What write queue length does an incoming req see
system.mem_ctrls0.wrQLenPdf::57                     0                       # What write queue length does an incoming req see
system.mem_ctrls0.wrQLenPdf::58                     0                       # What write queue length does an incoming req see
system.mem_ctrls0.wrQLenPdf::59                     0                       # What write queue length does an incoming req see
system.mem_ctrls0.wrQLenPdf::60                     0                       # What write queue length does an incoming req see
system.mem_ctrls0.wrQLenPdf::61                     0                       # What write queue length does an incoming req see
system.mem_ctrls0.wrQLenPdf::62                     0                       # What write queue length does an incoming req see
system.mem_ctrls0.wrQLenPdf::63                     0                       # What write queue length does an incoming req see
system.mem_ctrls0.bytesPerActivate::samples     34071694                       # Bytes accessed per row activation
system.mem_ctrls0.bytesPerActivate::mean    64.099799                       # Bytes accessed per row activation
system.mem_ctrls0.bytesPerActivate::gmean    64.056762                       # Bytes accessed per row activation
system.mem_ctrls0.bytesPerActivate::stdev     3.863020                       # Bytes accessed per row activation
system.mem_ctrls0.bytesPerActivate::0-127     34036694     99.90%     99.90% # Bytes accessed per row activation
system.mem_ctrls0.bytesPerActivate::128-255        30816      0.09%     99.99% # Bytes accessed per row activation
system.mem_ctrls0.bytesPerActivate::256-383         3177      0.01%    100.00% # Bytes accessed per row activation
system.mem_ctrls0.bytesPerActivate::384-511          708      0.00%    100.00% # Bytes accessed per row activation
system.mem_ctrls0.bytesPerActivate::512-639          214      0.00%    100.00% # Bytes accessed per row activation
system.mem_ctrls0.bytesPerActivate::640-767           55      0.00%    100.00% # Bytes accessed per row activation
system.mem_ctrls0.bytesPerActivate::768-895           21      0.00%    100.00% # Bytes accessed per row activation
system.mem_ctrls0.bytesPerActivate::896-1023            8      0.00%    100.00% # Bytes accessed per row activation
system.mem_ctrls0.bytesPerActivate::1024-1151            1      0.00%    100.00% # Bytes accessed per row activation
system.mem_ctrls0.bytesPerActivate::total     34071694                       # Bytes accessed per row activation
system.mem_ctrls0.rdPerTurnAround::samples         3151                       # Reads before turning the bus around for writes
system.mem_ctrls0.rdPerTurnAround::mean  10784.468105                       # Reads before turning the bus around for writes
system.mem_ctrls0.rdPerTurnAround::gmean   265.808530                       # Reads before turning the bus around for writes
system.mem_ctrls0.rdPerTurnAround::stdev 62116.044630                       # Reads before turning the bus around for writes
system.mem_ctrls0.rdPerTurnAround::0-65535         3048     96.73%     96.73% # Reads before turning the bus around for writes
system.mem_ctrls0.rdPerTurnAround::65536-131071           42      1.33%     98.06% # Reads before turning the bus around for writes
system.mem_ctrls0.rdPerTurnAround::131072-196607           20      0.63%     98.70% # Reads before turning the bus around for writes
system.mem_ctrls0.rdPerTurnAround::196608-262143            8      0.25%     98.95% # Reads before turning the bus around for writes
system.mem_ctrls0.rdPerTurnAround::262144-327679            7      0.22%     99.17% # Reads before turning the bus around for writes
system.mem_ctrls0.rdPerTurnAround::327680-393215            8      0.25%     99.43% # Reads before turning the bus around for writes
system.mem_ctrls0.rdPerTurnAround::393216-458751            4      0.13%     99.56% # Reads before turning the bus around for writes
system.mem_ctrls0.rdPerTurnAround::458752-524287            4      0.13%     99.68% # Reads before turning the bus around for writes
system.mem_ctrls0.rdPerTurnAround::589824-655359            3      0.10%     99.78% # Reads before turning the bus around for writes
system.mem_ctrls0.rdPerTurnAround::655360-720895            1      0.03%     99.81% # Reads before turning the bus around for writes
system.mem_ctrls0.rdPerTurnAround::786432-851967            2      0.06%     99.87% # Reads before turning the bus around for writes
system.mem_ctrls0.rdPerTurnAround::917504-983039            1      0.03%     99.90% # Reads before turning the bus around for writes
system.mem_ctrls0.rdPerTurnAround::1.04858e+06-1.11411e+06            2      0.06%     99.97% # Reads before turning the bus around for writes
system.mem_ctrls0.rdPerTurnAround::1.11411e+06-1.17965e+06            1      0.03%    100.00% # Reads before turning the bus around for writes
system.mem_ctrls0.rdPerTurnAround::total         3151                       # Reads before turning the bus around for writes
system.mem_ctrls0.wrPerTurnAround::samples         3151                       # Writes before turning the bus around for reads
system.mem_ctrls0.wrPerTurnAround::mean     17.345287                       # Writes before turning the bus around for reads
system.mem_ctrls0.wrPerTurnAround::gmean    17.318317                       # Writes before turning the bus around for reads
system.mem_ctrls0.wrPerTurnAround::stdev     0.961865                       # Writes before turning the bus around for reads
system.mem_ctrls0.wrPerTurnAround::16            1019     32.34%     32.34% # Writes before turning the bus around for reads
system.mem_ctrls0.wrPerTurnAround::17              51      1.62%     33.96% # Writes before turning the bus around for reads
system.mem_ctrls0.wrPerTurnAround::18            2066     65.57%     99.52% # Writes before turning the bus around for reads
system.mem_ctrls0.wrPerTurnAround::19              13      0.41%     99.94% # Writes before turning the bus around for reads
system.mem_ctrls0.wrPerTurnAround::20               1      0.03%     99.97% # Writes before turning the bus around for reads
system.mem_ctrls0.wrPerTurnAround::29               1      0.03%    100.00% # Writes before turning the bus around for reads
system.mem_ctrls0.wrPerTurnAround::total         3151                       # Writes before turning the bus around for reads
system.mem_ctrls0.totQLat                995105165326                       # Total ticks spent queuing
system.mem_ctrls0.totMemAccLat           1633921059076                       # Total ticks spent from burst creation until serviced by the DRAM
system.mem_ctrls0.totBusLat              170350905000                       # Total ticks spent in databus transfers
system.mem_ctrls0.avgQLat                    29207.51                       # Average queueing delay per DRAM burst
system.mem_ctrls0.avgBusLat                   5000.00                       # Average bus latency per DRAM burst
system.mem_ctrls0.avgMemAccLat               47957.51                       # Average memory access latency per DRAM burst
system.mem_ctrls0.avgRdBW                      167.70                       # Average DRAM read bandwidth in MiByte/s
system.mem_ctrls0.avgWrBW                        0.27                       # Average achieved write bandwidth in MiByte/s
system.mem_ctrls0.avgRdBWSys                   167.73                       # Average system read bandwidth in MiByte/s
system.mem_ctrls0.avgWrBWSys                     0.27                       # Average system write bandwidth in MiByte/s
system.mem_ctrls0.peakBW                     12800.00                       # Theoretical peak bandwidth in MiByte/s
system.mem_ctrls0.busUtil                        1.31                       # Data bus utilization in percentage
system.mem_ctrls0.busUtilRead                    1.31                       # Data bus utilization in percentage for reads
system.mem_ctrls0.busUtilWrite                   0.00                       # Data bus utilization in percentage for writes
system.mem_ctrls0.avgRdQLen                      1.00                       # Average read queue length when enqueuing
system.mem_ctrls0.avgWrQLen                     24.34                       # Average write queue length when enqueuing
system.mem_ctrls0.readRowHits                   45454                       # Number of row buffer hits during reads
system.mem_ctrls0.writeRowHits                   7676                       # Number of row buffer hits during writes
system.mem_ctrls0.readRowHitRate                 0.13                       # Row buffer hit rate for reads
system.mem_ctrls0.writeRowHitRate               14.04                       # Row buffer hit rate for writes
system.mem_ctrls0.avgGap                    380951.29                       # Average gap between requests
system.mem_ctrls0.pageHitRate                    0.16                       # Row buffer hit rate, read and write combined
system.mem_ctrls0_0.actEnergy            121614034920                       # Energy for activate commands per rank (pJ)
system.mem_ctrls0_0.preEnergy             64639369740                       # Energy for precharge commands per rank (pJ)
system.mem_ctrls0_0.readEnergy           121607973060                       # Energy for read commands per rank (pJ)
system.mem_ctrls0_0.writeEnergy             146953440                       # Energy for write commands per rank (pJ)
system.mem_ctrls0_0.refreshEnergy        1026402087360.000244                       # Energy for refresh commands per rank (pJ)
system.mem_ctrls0_0.actBackEnergy        522048997950                       # Energy for active background per rank (pJ)
system.mem_ctrls0_0.preBackEnergy         23065223040                       # Energy for precharge background per rank (pJ)
system.mem_ctrls0_0.actPowerDownEnergy   5074349627190                       # Energy for active power-down per rank (pJ)
system.mem_ctrls0_0.prePowerDownEnergy   256874816640                       # Energy for precharge power-down per rank (pJ)
system.mem_ctrls0_0.selfRefreshEnergy       109913055                       # Energy for self refresh per rank (pJ)
system.mem_ctrls0_0.totalEnergy          7210859375925                       # Total energy per rank (pJ)
system.mem_ctrls0_0.averagePower           554.593218                       # Core power per rank (mW)
system.mem_ctrls0_0.totalIdleTime        11797086041654                       # Total Idle time Per DRAM Rank
system.mem_ctrls0_0.memoryStateTime::IDLE   9863452167                       # Time in different power states
system.mem_ctrls0_0.memoryStateTime::REF 434180822000                       # Time in different power states
system.mem_ctrls0_0.memoryStateTime::SREF    253784986                       # Time in different power states
system.mem_ctrls0_0.memoryStateTime::PRE_PDN 669309057913                       # Time in different power states
system.mem_ctrls0_0.memoryStateTime::ACT 760938295030                       # Time in different power states
system.mem_ctrls0_0.memoryStateTime::ACT_PDN 11127523740577                       # Time in different power states
system.mem_ctrls0_1.actEnergy            121657945920                       # Energy for activate commands per rank (pJ)
system.mem_ctrls0_1.preEnergy             64662708990                       # Energy for precharge commands per rank (pJ)
system.mem_ctrls0_1.readEnergy           121653119280                       # Energy for read commands per rank (pJ)
system.mem_ctrls0_1.writeEnergy             138345660                       # Energy for write commands per rank (pJ)
system.mem_ctrls0_1.refreshEnergy        1026413765520.000244                       # Energy for refresh commands per rank (pJ)
system.mem_ctrls0_1.actBackEnergy        522086552970                       # Energy for active background per rank (pJ)
system.mem_ctrls0_1.preBackEnergy         23213772480                       # Energy for precharge background per rank (pJ)
system.mem_ctrls0_1.actPowerDownEnergy   5076444979680                       # Energy for active power-down per rank (pJ)
system.mem_ctrls0_1.prePowerDownEnergy   254891002560                       # Energy for precharge power-down per rank (pJ)
system.mem_ctrls0_1.selfRefreshEnergy       153380955                       # Energy for self refresh per rank (pJ)
system.mem_ctrls0_1.totalEnergy          7211316733365                       # Total energy per rank (pJ)
system.mem_ctrls0_1.averagePower           554.628394                       # Core power per rank (mW)
system.mem_ctrls0_1.totalIdleTime        11796699167676                       # Total Idle time Per DRAM Rank
system.mem_ctrls0_1.memoryStateTime::IDLE   9925576732                       # Time in different power states
system.mem_ctrls0_1.memoryStateTime::REF 434185948000                       # Time in different power states
system.mem_ctrls0_1.memoryStateTime::SREF    353955522                       # Time in different power states
system.mem_ctrls0_1.memoryStateTime::PRE_PDN 663545840084                       # Time in different power states
system.mem_ctrls0_1.memoryStateTime::ACT 761257484780                       # Time in different power states
system.mem_ctrls0_1.memoryStateTime::ACT_PDN 11132800347555                       # Time in different power states
system.mem_ctrls1.pwrStateResidencyTicks::UNDEFINED 175084252315173                       # Cumulative time (in ticks) in various power states
system.mem_ctrls1.bytes_read::cpu.inst            128                       # Number of bytes read from this memory
system.mem_ctrls1.bytes_read::cpu.data             64                       # Number of bytes read from this memory
system.mem_ctrls1.bytes_read::switch_cpus.inst         1088                       # Number of bytes read from this memory
system.mem_ctrls1.bytes_read::switch_cpus.data   1819550720                       # Number of bytes read from this memory
system.mem_ctrls1.bytes_read::switch_cpus_1.inst          320                       # Number of bytes read from this memory
system.mem_ctrls1.bytes_read::switch_cpus_1.data    362499776                       # Number of bytes read from this memory
system.mem_ctrls1.bytes_read::total        2182052096                       # Number of bytes read from this memory
system.mem_ctrls1.bytes_inst_read::cpu.inst          128                       # Number of instructions bytes read from this memory
system.mem_ctrls1.bytes_inst_read::switch_cpus.inst         1088                       # Number of instructions bytes read from this memory
system.mem_ctrls1.bytes_inst_read::switch_cpus_1.inst          320                       # Number of instructions bytes read from this memory
system.mem_ctrls1.bytes_inst_read::total         1536                       # Number of instructions bytes read from this memory
system.mem_ctrls1.bytes_written::writebacks      3559488                       # Number of bytes written to this memory
system.mem_ctrls1.bytes_written::total        3559488                       # Number of bytes written to this memory
system.mem_ctrls1.num_reads::cpu.inst               2                       # Number of read requests responded to by this memory
system.mem_ctrls1.num_reads::cpu.data               1                       # Number of read requests responded to by this memory
system.mem_ctrls1.num_reads::switch_cpus.inst           17                       # Number of read requests responded to by this memory
system.mem_ctrls1.num_reads::switch_cpus.data     28430480                       # Number of read requests responded to by this memory
system.mem_ctrls1.num_reads::switch_cpus_1.inst            5                       # Number of read requests responded to by this memory
system.mem_ctrls1.num_reads::switch_cpus_1.data      5664059                       # Number of read requests responded to by this memory
system.mem_ctrls1.num_reads::total           34094564                       # Number of read requests responded to by this memory
system.mem_ctrls1.num_writes::writebacks        55617                       # Number of write requests responded to by this memory
system.mem_ctrls1.num_writes::total             55617                       # Number of write requests responded to by this memory
system.mem_ctrls1.bw_read::cpu.inst                10                       # Total read bandwidth from this memory (bytes/s)
system.mem_ctrls1.bw_read::cpu.data                 5                       # Total read bandwidth from this memory (bytes/s)
system.mem_ctrls1.bw_read::switch_cpus.inst           84                       # Total read bandwidth from this memory (bytes/s)
system.mem_ctrls1.bw_read::switch_cpus.data    139943166                       # Total read bandwidth from this memory (bytes/s)
system.mem_ctrls1.bw_read::switch_cpus_1.inst           25                       # Total read bandwidth from this memory (bytes/s)
system.mem_ctrls1.bw_read::switch_cpus_1.data     27880161                       # Total read bandwidth from this memory (bytes/s)
system.mem_ctrls1.bw_read::total            167823450                       # Total read bandwidth from this memory (bytes/s)
system.mem_ctrls1.bw_inst_read::cpu.inst           10                       # Instruction read bandwidth from this memory (bytes/s)
system.mem_ctrls1.bw_inst_read::switch_cpus.inst           84                       # Instruction read bandwidth from this memory (bytes/s)
system.mem_ctrls1.bw_inst_read::switch_cpus_1.inst           25                       # Instruction read bandwidth from this memory (bytes/s)
system.mem_ctrls1.bw_inst_read::total             118                       # Instruction read bandwidth from this memory (bytes/s)
system.mem_ctrls1.bw_write::writebacks         273763                       # Write bandwidth from this memory (bytes/s)
system.mem_ctrls1.bw_write::total              273763                       # Write bandwidth from this memory (bytes/s)
system.mem_ctrls1.bw_total::writebacks         273763                       # Total bandwidth to/from this memory (bytes/s)
system.mem_ctrls1.bw_total::cpu.inst               10                       # Total bandwidth to/from this memory (bytes/s)
system.mem_ctrls1.bw_total::cpu.data                5                       # Total bandwidth to/from this memory (bytes/s)
system.mem_ctrls1.bw_total::switch_cpus.inst           84                       # Total bandwidth to/from this memory (bytes/s)
system.mem_ctrls1.bw_total::switch_cpus.data    139943166                       # Total bandwidth to/from this memory (bytes/s)
system.mem_ctrls1.bw_total::switch_cpus_1.inst           25                       # Total bandwidth to/from this memory (bytes/s)
system.mem_ctrls1.bw_total::switch_cpus_1.data     27880161                       # Total bandwidth to/from this memory (bytes/s)
system.mem_ctrls1.bw_total::total           168097213                       # Total bandwidth to/from this memory (bytes/s)
system.mem_ctrls1.readReqs                   34094564                       # Number of read requests accepted
system.mem_ctrls1.writeReqs                     55617                       # Number of write requests accepted
system.mem_ctrls1.readBursts                 34094564                       # Number of DRAM read bursts, including those serviced by the write queue
system.mem_ctrls1.writeBursts                   55617                       # Number of DRAM write bursts, including those merged in the write queue
system.mem_ctrls1.bytesReadDRAM            2181716352                       # Total number of bytes read from DRAM
system.mem_ctrls1.bytesReadWrQ                 335744                       # Total number of bytes read from write queue
system.mem_ctrls1.bytesWritten                3542464                       # Total number of bytes written to DRAM
system.mem_ctrls1.bytesReadSys             2182052096                       # Total read bytes from the system interface side
system.mem_ctrls1.bytesWrittenSys             3559488                       # Total written bytes from the system interface side
system.mem_ctrls1.servicedByWrQ                  5246                       # Number of DRAM read bursts serviced by the write queue
system.mem_ctrls1.mergedWrBursts                  235                       # Number of DRAM write bursts merged with an existing one
system.mem_ctrls1.neitherReadNorWriteReqs            0                       # Number of requests that are neither read nor write
system.mem_ctrls1.perBankRdBursts::0          2127971                       # Per bank write bursts
system.mem_ctrls1.perBankRdBursts::1          2130061                       # Per bank write bursts
system.mem_ctrls1.perBankRdBursts::2          2136678                       # Per bank write bursts
system.mem_ctrls1.perBankRdBursts::3          2130409                       # Per bank write bursts
system.mem_ctrls1.perBankRdBursts::4          2132672                       # Per bank write bursts
system.mem_ctrls1.perBankRdBursts::5          2132401                       # Per bank write bursts
system.mem_ctrls1.perBankRdBursts::6          2133485                       # Per bank write bursts
system.mem_ctrls1.perBankRdBursts::7          2130981                       # Per bank write bursts
system.mem_ctrls1.perBankRdBursts::8          2140135                       # Per bank write bursts
system.mem_ctrls1.perBankRdBursts::9          2132763                       # Per bank write bursts
system.mem_ctrls1.perBankRdBursts::10         2137922                       # Per bank write bursts
system.mem_ctrls1.perBankRdBursts::11         2124104                       # Per bank write bursts
system.mem_ctrls1.perBankRdBursts::12         2126097                       # Per bank write bursts
system.mem_ctrls1.perBankRdBursts::13         2126713                       # Per bank write bursts
system.mem_ctrls1.perBankRdBursts::14         2128805                       # Per bank write bursts
system.mem_ctrls1.perBankRdBursts::15         2118121                       # Per bank write bursts
system.mem_ctrls1.perBankWrBursts::0             3249                       # Per bank write bursts
system.mem_ctrls1.perBankWrBursts::1             3238                       # Per bank write bursts
system.mem_ctrls1.perBankWrBursts::2             3185                       # Per bank write bursts
system.mem_ctrls1.perBankWrBursts::3             4281                       # Per bank write bursts
system.mem_ctrls1.perBankWrBursts::4             4455                       # Per bank write bursts
system.mem_ctrls1.perBankWrBursts::5             3305                       # Per bank write bursts
system.mem_ctrls1.perBankWrBursts::6             3341                       # Per bank write bursts
system.mem_ctrls1.perBankWrBursts::7             3432                       # Per bank write bursts
system.mem_ctrls1.perBankWrBursts::8             3460                       # Per bank write bursts
system.mem_ctrls1.perBankWrBursts::9             3350                       # Per bank write bursts
system.mem_ctrls1.perBankWrBursts::10            3376                       # Per bank write bursts
system.mem_ctrls1.perBankWrBursts::11            3377                       # Per bank write bursts
system.mem_ctrls1.perBankWrBursts::12            3351                       # Per bank write bursts
system.mem_ctrls1.perBankWrBursts::13            3344                       # Per bank write bursts
system.mem_ctrls1.perBankWrBursts::14            3289                       # Per bank write bursts
system.mem_ctrls1.perBankWrBursts::15            3318                       # Per bank write bursts
system.mem_ctrls1.numRdRetry                        0                       # Number of times read queue was full causing retry
system.mem_ctrls1.numWrRetry                        0                       # Number of times write queue was full causing retry
system.mem_ctrls1.totGap                 13002068983599                       # Total gap between requests
system.mem_ctrls1.readPktSize::0                    0                       # Read request sizes (log2)
system.mem_ctrls1.readPktSize::1                    0                       # Read request sizes (log2)
system.mem_ctrls1.readPktSize::2                    0                       # Read request sizes (log2)
system.mem_ctrls1.readPktSize::3                    0                       # Read request sizes (log2)
system.mem_ctrls1.readPktSize::4                    0                       # Read request sizes (log2)
system.mem_ctrls1.readPktSize::5                    0                       # Read request sizes (log2)
system.mem_ctrls1.readPktSize::6             34094564                       # Read request sizes (log2)
system.mem_ctrls1.writePktSize::0                   0                       # Write request sizes (log2)
system.mem_ctrls1.writePktSize::1                   0                       # Write request sizes (log2)
system.mem_ctrls1.writePktSize::2                   0                       # Write request sizes (log2)
system.mem_ctrls1.writePktSize::3                   0                       # Write request sizes (log2)
system.mem_ctrls1.writePktSize::4                   0                       # Write request sizes (log2)
system.mem_ctrls1.writePktSize::5                   0                       # Write request sizes (log2)
system.mem_ctrls1.writePktSize::6               55617                       # Write request sizes (log2)
system.mem_ctrls1.rdQLenPdf::0               34088792                       # What read queue length does an incoming req see
system.mem_ctrls1.rdQLenPdf::1                    502                       # What read queue length does an incoming req see
system.mem_ctrls1.rdQLenPdf::2                     24                       # What read queue length does an incoming req see
system.mem_ctrls1.rdQLenPdf::3                      0                       # What read queue length does an incoming req see
system.mem_ctrls1.rdQLenPdf::4                      0                       # What read queue length does an incoming req see
system.mem_ctrls1.rdQLenPdf::5                      0                       # What read queue length does an incoming req see
system.mem_ctrls1.rdQLenPdf::6                      0                       # What read queue length does an incoming req see
system.mem_ctrls1.rdQLenPdf::7                      0                       # What read queue length does an incoming req see
system.mem_ctrls1.rdQLenPdf::8                      0                       # What read queue length does an incoming req see
system.mem_ctrls1.rdQLenPdf::9                      0                       # What read queue length does an incoming req see
system.mem_ctrls1.rdQLenPdf::10                     0                       # What read queue length does an incoming req see
system.mem_ctrls1.rdQLenPdf::11                     0                       # What read queue length does an incoming req see
system.mem_ctrls1.rdQLenPdf::12                     0                       # What read queue length does an incoming req see
system.mem_ctrls1.rdQLenPdf::13                     0                       # What read queue length does an incoming req see
system.mem_ctrls1.rdQLenPdf::14                     0                       # What read queue length does an incoming req see
system.mem_ctrls1.rdQLenPdf::15                     0                       # What read queue length does an incoming req see
system.mem_ctrls1.rdQLenPdf::16                     0                       # What read queue length does an incoming req see
system.mem_ctrls1.rdQLenPdf::17                     0                       # What read queue length does an incoming req see
system.mem_ctrls1.rdQLenPdf::18                     0                       # What read queue length does an incoming req see
system.mem_ctrls1.rdQLenPdf::19                     0                       # What read queue length does an incoming req see
system.mem_ctrls1.rdQLenPdf::20                     0                       # What read queue length does an incoming req see
system.mem_ctrls1.rdQLenPdf::21                     0                       # What read queue length does an incoming req see
system.mem_ctrls1.rdQLenPdf::22                     0                       # What read queue length does an incoming req see
system.mem_ctrls1.rdQLenPdf::23                     0                       # What read queue length does an incoming req see
system.mem_ctrls1.rdQLenPdf::24                     0                       # What read queue length does an incoming req see
system.mem_ctrls1.rdQLenPdf::25                     0                       # What read queue length does an incoming req see
system.mem_ctrls1.rdQLenPdf::26                     0                       # What read queue length does an incoming req see
system.mem_ctrls1.rdQLenPdf::27                     0                       # What read queue length does an incoming req see
system.mem_ctrls1.rdQLenPdf::28                     0                       # What read queue length does an incoming req see
system.mem_ctrls1.rdQLenPdf::29                     0                       # What read queue length does an incoming req see
system.mem_ctrls1.rdQLenPdf::30                     0                       # What read queue length does an incoming req see
system.mem_ctrls1.rdQLenPdf::31                     0                       # What read queue length does an incoming req see
system.mem_ctrls1.wrQLenPdf::0                      2                       # What write queue length does an incoming req see
system.mem_ctrls1.wrQLenPdf::1                      2                       # What write queue length does an incoming req see
system.mem_ctrls1.wrQLenPdf::2                      2                       # What write queue length does an incoming req see
system.mem_ctrls1.wrQLenPdf::3                      2                       # What write queue length does an incoming req see
system.mem_ctrls1.wrQLenPdf::4                      2                       # What write queue length does an incoming req see
system.mem_ctrls1.wrQLenPdf::5                      2                       # What write queue length does an incoming req see
system.mem_ctrls1.wrQLenPdf::6                      2                       # What write queue length does an incoming req see
system.mem_ctrls1.wrQLenPdf::7                      2                       # What write queue length does an incoming req see
system.mem_ctrls1.wrQLenPdf::8                      2                       # What write queue length does an incoming req see
system.mem_ctrls1.wrQLenPdf::9                      2                       # What write queue length does an incoming req see
system.mem_ctrls1.wrQLenPdf::10                     2                       # What write queue length does an incoming req see
system.mem_ctrls1.wrQLenPdf::11                     2                       # What write queue length does an incoming req see
system.mem_ctrls1.wrQLenPdf::12                     2                       # What write queue length does an incoming req see
system.mem_ctrls1.wrQLenPdf::13                     2                       # What write queue length does an incoming req see
system.mem_ctrls1.wrQLenPdf::14                     2                       # What write queue length does an incoming req see
system.mem_ctrls1.wrQLenPdf::15                  2090                       # What write queue length does an incoming req see
system.mem_ctrls1.wrQLenPdf::16                  2148                       # What write queue length does an incoming req see
system.mem_ctrls1.wrQLenPdf::17                  3193                       # What write queue length does an incoming req see
system.mem_ctrls1.wrQLenPdf::18                  3194                       # What write queue length does an incoming req see
system.mem_ctrls1.wrQLenPdf::19                  3196                       # What write queue length does an incoming req see
system.mem_ctrls1.wrQLenPdf::20                  3194                       # What write queue length does an incoming req see
system.mem_ctrls1.wrQLenPdf::21                  3194                       # What write queue length does an incoming req see
system.mem_ctrls1.wrQLenPdf::22                  3194                       # What write queue length does an incoming req see
system.mem_ctrls1.wrQLenPdf::23                  3194                       # What write queue length does an incoming req see
system.mem_ctrls1.wrQLenPdf::24                  3198                       # What write queue length does an incoming req see
system.mem_ctrls1.wrQLenPdf::25                  3200                       # What write queue length does an incoming req see
system.mem_ctrls1.wrQLenPdf::26                  3195                       # What write queue length does an incoming req see
system.mem_ctrls1.wrQLenPdf::27                  3194                       # What write queue length does an incoming req see
system.mem_ctrls1.wrQLenPdf::28                  3194                       # What write queue length does an incoming req see
system.mem_ctrls1.wrQLenPdf::29                  3194                       # What write queue length does an incoming req see
system.mem_ctrls1.wrQLenPdf::30                  3194                       # What write queue length does an incoming req see
system.mem_ctrls1.wrQLenPdf::31                  3193                       # What write queue length does an incoming req see
system.mem_ctrls1.wrQLenPdf::32                  3193                       # What write queue length does an incoming req see
system.mem_ctrls1.wrQLenPdf::33                     0                       # What write queue length does an incoming req see
system.mem_ctrls1.wrQLenPdf::34                     0                       # What write queue length does an incoming req see
system.mem_ctrls1.wrQLenPdf::35                     0                       # What write queue length does an incoming req see
system.mem_ctrls1.wrQLenPdf::36                     0                       # What write queue length does an incoming req see
system.mem_ctrls1.wrQLenPdf::37                     0                       # What write queue length does an incoming req see
system.mem_ctrls1.wrQLenPdf::38                     0                       # What write queue length does an incoming req see
system.mem_ctrls1.wrQLenPdf::39                     0                       # What write queue length does an incoming req see
system.mem_ctrls1.wrQLenPdf::40                     0                       # What write queue length does an incoming req see
system.mem_ctrls1.wrQLenPdf::41                     0                       # What write queue length does an incoming req see
system.mem_ctrls1.wrQLenPdf::42                     0                       # What write queue length does an incoming req see
system.mem_ctrls1.wrQLenPdf::43                     0                       # What write queue length does an incoming req see
system.mem_ctrls1.wrQLenPdf::44                     0                       # What write queue length does an incoming req see
system.mem_ctrls1.wrQLenPdf::45                     0                       # What write queue length does an incoming req see
system.mem_ctrls1.wrQLenPdf::46                     0                       # What write queue length does an incoming req see
system.mem_ctrls1.wrQLenPdf::47                     0                       # What write queue length does an incoming req see
system.mem_ctrls1.wrQLenPdf::48                     0                       # What write queue length does an incoming req see
system.mem_ctrls1.wrQLenPdf::49                     0                       # What write queue length does an incoming req see
system.mem_ctrls1.wrQLenPdf::50                     0                       # What write queue length does an incoming req see
system.mem_ctrls1.wrQLenPdf::51                     0                       # What write queue length does an incoming req see
system.mem_ctrls1.wrQLenPdf::52                     0                       # What write queue length does an incoming req see
system.mem_ctrls1.wrQLenPdf::53                     0                       # What write queue length does an incoming req see
system.mem_ctrls1.wrQLenPdf::54                     0                       # What write queue length does an incoming req see
system.mem_ctrls1.wrQLenPdf::55                     0                       # What write queue length does an incoming req see
system.mem_ctrls1.wrQLenPdf::56                     0                       # What write queue length does an incoming req see
system.mem_ctrls1.wrQLenPdf::57                     0                       # What write queue length does an incoming req see
system.mem_ctrls1.wrQLenPdf::58                     0                       # What write queue length does an incoming req see
system.mem_ctrls1.wrQLenPdf::59                     0                       # What write queue length does an incoming req see
system.mem_ctrls1.wrQLenPdf::60                     0                       # What write queue length does an incoming req see
system.mem_ctrls1.wrQLenPdf::61                     0                       # What write queue length does an incoming req see
system.mem_ctrls1.wrQLenPdf::62                     0                       # What write queue length does an incoming req see
system.mem_ctrls1.wrQLenPdf::63                     0                       # What write queue length does an incoming req see
system.mem_ctrls1.bytesPerActivate::samples     34091215                       # Bytes accessed per row activation
system.mem_ctrls1.bytesPerActivate::mean    64.100341                       # Bytes accessed per row activation
system.mem_ctrls1.bytesPerActivate::gmean    64.056893                       # Bytes accessed per row activation
system.mem_ctrls1.bytesPerActivate::stdev     3.903812                       # Bytes accessed per row activation
system.mem_ctrls1.bytesPerActivate::0-127     34056175     99.90%     99.90% # Bytes accessed per row activation
system.mem_ctrls1.bytesPerActivate::128-255        30788      0.09%     99.99% # Bytes accessed per row activation
system.mem_ctrls1.bytesPerActivate::256-383         3200      0.01%    100.00% # Bytes accessed per row activation
system.mem_ctrls1.bytesPerActivate::384-511          749      0.00%    100.00% # Bytes accessed per row activation
system.mem_ctrls1.bytesPerActivate::512-639          197      0.00%    100.00% # Bytes accessed per row activation
system.mem_ctrls1.bytesPerActivate::640-767           70      0.00%    100.00% # Bytes accessed per row activation
system.mem_ctrls1.bytesPerActivate::768-895           26      0.00%    100.00% # Bytes accessed per row activation
system.mem_ctrls1.bytesPerActivate::896-1023            6      0.00%    100.00% # Bytes accessed per row activation
system.mem_ctrls1.bytesPerActivate::1024-1151            4      0.00%    100.00% # Bytes accessed per row activation
system.mem_ctrls1.bytesPerActivate::total     34091215                       # Bytes accessed per row activation
system.mem_ctrls1.rdPerTurnAround::samples         3194                       # Reads before turning the bus around for writes
system.mem_ctrls1.rdPerTurnAround::mean  10639.609894                       # Reads before turning the bus around for writes
system.mem_ctrls1.rdPerTurnAround::gmean   267.943810                       # Reads before turning the bus around for writes
system.mem_ctrls1.rdPerTurnAround::stdev 64917.527796                       # Reads before turning the bus around for writes
system.mem_ctrls1.rdPerTurnAround::0-65535         3088     96.68%     96.68% # Reads before turning the bus around for writes
system.mem_ctrls1.rdPerTurnAround::65536-131071           48      1.50%     98.18% # Reads before turning the bus around for writes
system.mem_ctrls1.rdPerTurnAround::131072-196607           19      0.59%     98.78% # Reads before turning the bus around for writes
system.mem_ctrls1.rdPerTurnAround::196608-262143           13      0.41%     99.19% # Reads before turning the bus around for writes
system.mem_ctrls1.rdPerTurnAround::262144-327679            2      0.06%     99.25% # Reads before turning the bus around for writes
system.mem_ctrls1.rdPerTurnAround::327680-393215            4      0.13%     99.37% # Reads before turning the bus around for writes
system.mem_ctrls1.rdPerTurnAround::393216-458751            6      0.19%     99.56% # Reads before turning the bus around for writes
system.mem_ctrls1.rdPerTurnAround::458752-524287            3      0.09%     99.66% # Reads before turning the bus around for writes
system.mem_ctrls1.rdPerTurnAround::524288-589823            2      0.06%     99.72% # Reads before turning the bus around for writes
system.mem_ctrls1.rdPerTurnAround::589824-655359            2      0.06%     99.78% # Reads before turning the bus around for writes
system.mem_ctrls1.rdPerTurnAround::655360-720895            1      0.03%     99.81% # Reads before turning the bus around for writes
system.mem_ctrls1.rdPerTurnAround::720896-786431            2      0.06%     99.87% # Reads before turning the bus around for writes
system.mem_ctrls1.rdPerTurnAround::851968-917503            1      0.03%     99.91% # Reads before turning the bus around for writes
system.mem_ctrls1.rdPerTurnAround::1.04858e+06-1.11411e+06            1      0.03%     99.94% # Reads before turning the bus around for writes
system.mem_ctrls1.rdPerTurnAround::1.24518e+06-1.31072e+06            1      0.03%     99.97% # Reads before turning the bus around for writes
system.mem_ctrls1.rdPerTurnAround::1.70394e+06-1.76947e+06            1      0.03%    100.00% # Reads before turning the bus around for writes
system.mem_ctrls1.rdPerTurnAround::total         3194                       # Reads before turning the bus around for writes
system.mem_ctrls1.wrPerTurnAround::samples         3194                       # Writes before turning the bus around for reads
system.mem_ctrls1.wrPerTurnAround::mean     17.329681                       # Writes before turning the bus around for reads
system.mem_ctrls1.wrPerTurnAround::gmean    17.303383                       # Writes before turning the bus around for reads
system.mem_ctrls1.wrPerTurnAround::stdev     0.942747                       # Writes before turning the bus around for reads
system.mem_ctrls1.wrPerTurnAround::15               1      0.03%      0.03% # Writes before turning the bus around for reads
system.mem_ctrls1.wrPerTurnAround::16            1049     32.84%     32.87% # Writes before turning the bus around for reads
system.mem_ctrls1.wrPerTurnAround::17              54      1.69%     34.56% # Writes before turning the bus around for reads
system.mem_ctrls1.wrPerTurnAround::18            2076     65.00%     99.56% # Writes before turning the bus around for reads
system.mem_ctrls1.wrPerTurnAround::19              14      0.44%    100.00% # Writes before turning the bus around for reads
system.mem_ctrls1.wrPerTurnAround::total         3194                       # Writes before turning the bus around for reads
system.mem_ctrls1.totQLat                1019520506157                       # Total ticks spent queuing
system.mem_ctrls1.totMemAccLat           1658695218657                       # Total ticks spent from burst creation until serviced by the DRAM
system.mem_ctrls1.totBusLat              170446590000                       # Total ticks spent in databus transfers
system.mem_ctrls1.avgQLat                    29907.33                       # Average queueing delay per DRAM burst
system.mem_ctrls1.avgBusLat                   5000.00                       # Average bus latency per DRAM burst
system.mem_ctrls1.avgMemAccLat               48657.33                       # Average memory access latency per DRAM burst
system.mem_ctrls1.avgRdBW                      167.80                       # Average DRAM read bandwidth in MiByte/s
system.mem_ctrls1.avgWrBW                        0.27                       # Average achieved write bandwidth in MiByte/s
system.mem_ctrls1.avgRdBWSys                   167.82                       # Average system read bandwidth in MiByte/s
system.mem_ctrls1.avgWrBWSys                     0.27                       # Average system write bandwidth in MiByte/s
system.mem_ctrls1.peakBW                     12800.00                       # Theoretical peak bandwidth in MiByte/s
system.mem_ctrls1.busUtil                        1.31                       # Data bus utilization in percentage
system.mem_ctrls1.busUtilRead                    1.31                       # Data bus utilization in percentage for reads
system.mem_ctrls1.busUtilWrite                   0.00                       # Data bus utilization in percentage for writes
system.mem_ctrls1.avgRdQLen                      1.00                       # Average read queue length when enqueuing
system.mem_ctrls1.avgWrQLen                     24.46                       # Average write queue length when enqueuing
system.mem_ctrls1.readRowHits                   45620                       # Number of row buffer hits during reads
system.mem_ctrls1.writeRowHits                   7829                       # Number of row buffer hits during writes
system.mem_ctrls1.readRowHitRate                 0.13                       # Row buffer hit rate for reads
system.mem_ctrls1.writeRowHitRate               14.14                       # Row buffer hit rate for writes
system.mem_ctrls1.avgGap                    380732.07                       # Average gap between requests
system.mem_ctrls1.pageHitRate                    0.16                       # Row buffer hit rate, read and write combined
system.mem_ctrls1_0.actEnergy            121778654760                       # Energy for activate commands per rank (pJ)
system.mem_ctrls1_0.preEnergy             64726886235                       # Energy for precharge commands per rank (pJ)
system.mem_ctrls1_0.readEnergy           121770258120                       # Energy for read commands per rank (pJ)
system.mem_ctrls1_0.writeEnergy             148696920                       # Energy for write commands per rank (pJ)
system.mem_ctrls1_0.refreshEnergy        1026397784880.000244                       # Energy for refresh commands per rank (pJ)
system.mem_ctrls1_0.actBackEnergy        522638005740                       # Energy for active background per rank (pJ)
system.mem_ctrls1_0.preBackEnergy         23250692160                       # Energy for precharge background per rank (pJ)
system.mem_ctrls1_0.actPowerDownEnergy   5104294498530                       # Energy for active power-down per rank (pJ)
system.mem_ctrls1_0.prePowerDownEnergy   230953309440                       # Energy for precharge power-down per rank (pJ)
system.mem_ctrls1_0.selfRefreshEnergy       124503360                       # Energy for self refresh per rank (pJ)
system.mem_ctrls1_0.totalEnergy          7216083798075                       # Total energy per rank (pJ)
system.mem_ctrls1_0.averagePower           554.995033                       # Core power per rank (mW)
system.mem_ctrls1_0.totalIdleTime        11795898553776                       # Total Idle time Per DRAM Rank
system.mem_ctrls1_0.memoryStateTime::IDLE   9818589712                       # Time in different power states
system.mem_ctrls1_0.memoryStateTime::REF 434178978000                       # Time in different power states
system.mem_ctrls1_0.memoryStateTime::SREF    314174338                       # Time in different power states
system.mem_ctrls1_0.memoryStateTime::PRE_PDN 601291329080                       # Time in different power states
system.mem_ctrls1_0.memoryStateTime::ACT 762171614475                       # Time in different power states
system.mem_ctrls1_0.memoryStateTime::ACT_PDN 11194294467068                       # Time in different power states
system.mem_ctrls1_1.actEnergy            121632656040                       # Energy for activate commands per rank (pJ)
system.mem_ctrls1_1.preEnergy             64649274690                       # Energy for precharge commands per rank (pJ)
system.mem_ctrls1_1.readEnergy           121627472400                       # Energy for read commands per rank (pJ)
system.mem_ctrls1_1.writeEnergy             140235300                       # Energy for write commands per rank (pJ)
system.mem_ctrls1_1.refreshEnergy        1026405775200.000244                       # Energy for refresh commands per rank (pJ)
system.mem_ctrls1_1.actBackEnergy        522209893560                       # Energy for active background per rank (pJ)
system.mem_ctrls1_1.preBackEnergy         23204401440                       # Energy for precharge background per rank (pJ)
system.mem_ctrls1_1.actPowerDownEnergy   5078084817240                       # Energy for active power-down per rank (pJ)
system.mem_ctrls1_1.prePowerDownEnergy   253440339360                       # Energy for precharge power-down per rank (pJ)
system.mem_ctrls1_1.selfRefreshEnergy       124948890                       # Energy for self refresh per rank (pJ)
system.mem_ctrls1_1.totalEnergy          7211520130800                       # Total energy per rank (pJ)
system.mem_ctrls1_1.averagePower           554.644037                       # Core power per rank (mW)
system.mem_ctrls1_1.totalIdleTime        11796843865741                       # Total Idle time Per DRAM Rank
system.mem_ctrls1_1.memoryStateTime::IDLE   9901846894                       # Time in different power states
system.mem_ctrls1_1.memoryStateTime::REF 434182442000                       # Time in different power states
system.mem_ctrls1_1.memoryStateTime::SREF    291386969                       # Time in different power states
system.mem_ctrls1_1.memoryStateTime::PRE_PDN 659898841370                       # Time in different power states
system.mem_ctrls1_1.memoryStateTime::ACT 761140882359                       # Time in different power states
system.mem_ctrls1_1.memoryStateTime::ACT_PDN 11136653753081                       # Time in different power states
system.pwrStateResidencyTicks::UNDEFINED 175084252315173                       # Cumulative time (in ticks) in various power states
system.cpu.branchPred.lookups                      15                       # Number of BP lookups
system.cpu.branchPred.condPredicted                15                       # Number of conditional branches predicted
system.cpu.branchPred.condIncorrect                 4                       # Number of conditional branches incorrect
system.cpu.branchPred.BTBLookups                    0                       # Number of BTB lookups
system.cpu.branchPred.BTBHits                       0                       # Number of BTB hits
system.cpu.branchPred.BTBCorrect                    0                       # Number of correct BTB predictions (this stat may not work properly.
system.cpu.branchPred.BTBHitPct                   nan                       # BTB Hit Percentage
system.cpu.branchPred.usedRAS                       0                       # Number of times the RAS was used to get a target.
system.cpu.branchPred.RASInCorrect                  0                       # Number of incorrect RAS predictions.
system.cpu.branchPred.indirectLookups               0                       # Number of indirect predictor lookups.
system.cpu.branchPred.indirectHits                  0                       # Number of indirect target hits.
system.cpu.branchPred.indirectMisses                0                       # Number of indirect misses.
system.cpu.branchPredindirectMispredicted            0                       # Number of mispredicted indirect branches.
system.cpu_voltage_domain.voltage                   1                       # Voltage in Volts
system.cpu_clk_domain.clock                       333                       # Clock period in ticks
system.cpu.dtb.fetch_hits                           0                       # ITB hits
system.cpu.dtb.fetch_misses                         0                       # ITB misses
system.cpu.dtb.fetch_acv                            0                       # ITB acv
system.cpu.dtb.fetch_accesses                       0                       # ITB accesses
system.cpu.dtb.read_hits                            1                       # DTB read hits
system.cpu.dtb.read_misses                         15                       # DTB read misses
system.cpu.dtb.read_acv                             0                       # DTB read access violations
system.cpu.dtb.read_accesses                       16                       # DTB read accesses
system.cpu.dtb.write_hits                           0                       # DTB write hits
system.cpu.dtb.write_misses                         0                       # DTB write misses
system.cpu.dtb.write_acv                            0                       # DTB write access violations
system.cpu.dtb.write_accesses                       0                       # DTB write accesses
system.cpu.dtb.data_hits                            1                       # DTB hits
system.cpu.dtb.data_misses                         15                       # DTB misses
system.cpu.dtb.data_acv                             0                       # DTB access violations
system.cpu.dtb.data_accesses                       16                       # DTB accesses
system.cpu.itb.fetch_hits                          14                       # ITB hits
system.cpu.itb.fetch_misses                         0                       # ITB misses
system.cpu.itb.fetch_acv                            0                       # ITB acv
system.cpu.itb.fetch_accesses                      14                       # ITB accesses
system.cpu.itb.read_hits                            0                       # DTB read hits
system.cpu.itb.read_misses                          0                       # DTB read misses
system.cpu.itb.read_acv                             0                       # DTB read access violations
system.cpu.itb.read_accesses                        0                       # DTB read accesses
system.cpu.itb.write_hits                           0                       # DTB write hits
system.cpu.itb.write_misses                         0                       # DTB write misses
system.cpu.itb.write_acv                            0                       # DTB write access violations
system.cpu.itb.write_accesses                       0                       # DTB write accesses
system.cpu.itb.data_hits                            0                       # DTB hits
system.cpu.itb.data_misses                          0                       # DTB misses
system.cpu.itb.data_acv                             0                       # DTB access violations
system.cpu.itb.data_accesses                        0                       # DTB accesses
system.cpu.workload.num_syscalls                    0                       # Number of system calls
system.cpu.pwrStateResidencyTicks::ON    13002069152673                       # Cumulative time (in ticks) in various power states
[...]
system.switch_cpus_1.iq.FU_type_0::total   1853072644                       # Type of FU issued
system.switch_cpus_1.iq.rate                 0.265959                       # Inst issue rate
system.switch_cpus_1.iq.fu_busy_cnt              4303                       # FU busy when requested
system.switch_cpus_1.iq.fu_busy_rate         0.000002                       # FU busy rate (busy events/executed inst)
system.switch_cpus_1.iq.int_inst_queue_reads  10673654961                       # Number of integer instruction queue reads
system.switch_cpus_1.iq.int_inst_queue_writes   6295226723                       # Number of integer instruction queue writes
system.switch_cpus_1.iq.int_inst_queue_wakeup_accesses   1164737555                       # Number of integer instruction queue wakeup accesses
system.switch_cpus_1.iq.fp_inst_queue_reads            0                       # Number of floating instruction queue reads
system.switch_cpus_1.iq.fp_inst_queue_writes            0                       # Number of floating instruction queue writes
system.switch_cpus_1.iq.fp_inst_queue_wakeup_accesses            0                       # Number of floating instruction queue wakeup accesses
system.switch_cpus_1.iq.int_alu_accesses   1853076947                       # Number of integer alu accesses
system.switch_cpus_1.iq.fp_alu_accesses             0                       # Number of floating point alu accesses
system.switch_cpus_1.iew.lsq.thread0.forwLoads          941                       # Number of loads that had data forwarded from stores
system.switch_cpus_1.iew.lsq.thread0.invAddrLoads            0                       # Number of loads ignored due to an invalid address
system.switch_cpus_1.iew.lsq.thread0.squashedLoads   1003991890                       # Number of loads squashed
system.switch_cpus_1.iew.lsq.thread0.ignoredResponses           21                       # Number of memory responses ignored because the instruction is squashed
system.switch_cpus_1.iew.lsq.thread0.memOrderViolation           42                       # Number of memory ordering violations
system.switch_cpus_1.iew.lsq.thread0.squashedStores       136320                       # Number of stores squashed
system.switch_cpus_1.iew.lsq.thread0.invAddrSwpfs            0                       # Number of software prefetches ignored due to an invalid address
system.switch_cpus_1.iew.lsq.thread0.blockedLoads            0                       # Number of blocked loads due to partial load-store forwarding
system.switch_cpus_1.iew.lsq.thread0.rescheduledLoads            0                       # Number of loads that were rescheduled
system.switch_cpus_1.iew.lsq.thread0.cacheBlocked         7076                       # Number of times an access to memory failed due to the cache being blocked
system.switch_cpus_1.iew.iewIdleCycles              0                       # Number of cycles IEW is idle
system.switch_cpus_1.iew.iewSquashCycles     33186796                       # Number of cycles IEW is squashing
system.switch_cpus_1.iew.iewBlockCycles    5831594642                       # Number of cycles IEW is blocking
system.switch_cpus_1.iew.iewUnblockCycles     40651127                       # Number of cycles IEW is unblocking
system.switch_cpus_1.iew.iewDispatchedInsts   3247632004                       # Number of instructions dispatched to IQ
system.switch_cpus_1.iew.iewDispSquashedInsts         4477                       # Number of squashed instructions skipped by dispatch
system.switch_cpus_1.iew.iewDispLoadInsts   1068246071                       # Number of dispatched load instructions
system.switch_cpus_1.iew.iewDispStoreInsts       148647                       # Number of dispatched store instructions
system.switch_cpus_1.iew.iewDispNonSpecInsts            0                       # Number of dispatched non-speculative instructions
system.switch_cpus_1.iew.iewIQFullEvents     19169381                       # Number of times the IQ has become full, causing a stall
system.switch_cpus_1.iew.iewLSQFullEvents      3614665                       # Number of times the LSQ has become full, causing a stall
system.switch_cpus_1.iew.memOrderViolationEvents           42                       # Number of memory order violations
system.switch_cpus_1.iew.predictedTakenIncorrect      1685546                       # Number of branches that were predicted taken incorrectly
system.switch_cpus_1.iew.predictedNotTakenIncorrect      2826047                       # Number of branches that were predicted not taken incorrectly
system.switch_cpus_1.iew.branchMispredicts      4511593                       # Number of branch mispredicts detected at execute
system.switch_cpus_1.iew.iewExecutedInsts   1848884604                       # Number of executed instructions
system.switch_cpus_1.iew.iewExecLoadInsts    748479696                       # Number of load instructions executed
system.switch_cpus_1.iew.iewExecSquashedInsts      4188038                       # Number of squashed instructions skipped in execute
system.switch_cpus_1.iew.exec_swp                   0                       # number of swp insts executed
system.switch_cpus_1.iew.exec_nop               18614                       # number of nop insts executed
system.switch_cpus_1.iew.exec_refs          748502187                       # number of memory reference insts executed
system.switch_cpus_1.iew.exec_branches      219694661                       # Number of branches executed
system.switch_cpus_1.iew.exec_stores            22491                       # Number of stores executed
system.switch_cpus_1.iew.exec_rate           0.265358                       # Inst execution rate
system.switch_cpus_1.iew.wb_sent           1847970397                       # cumulative count of insts sent to commit
system.switch_cpus_1.iew.wb_count          1164737555                       # cumulative count of insts written-back
system.switch_cpus_1.iew.wb_producers       670505593                       # num instructions producing a value
system.switch_cpus_1.iew.wb_consumers       923377764                       # num instructions consuming a value
system.switch_cpus_1.iew.wb_rate             0.167167                       # insts written-back per cycle
system.switch_cpus_1.iew.wb_fanout           0.726144                       # average fanout of values written-back
system.switch_cpus_1.commit.commitSquashedInsts   2815836456                       # The number of squashed insts skipped by commit
system.switch_cpus_1.commit.branchMispredicts      4333912                       # The number of times a branch was mispredicted
system.switch_cpus_1.commit.committed_per_cycle::samples   6602930293                       # Number of insts commited each cycle
system.switch_cpus_1.commit.committed_per_cycle::mean     0.030290                       # Number of insts commited each cycle
system.switch_cpus_1.commit.committed_per_cycle::stdev     0.325922                       # Number of insts commited each cycle
system.switch_cpus_1.commit.committed_per_cycle::underflows            0      0.00%      0.00% # Number of insts commited each cycle
system.switch_cpus_1.commit.committed_per_cycle::0   6500600146     98.45%     98.45% # Number of insts commited each cycle
system.switch_cpus_1.commit.committed_per_cycle::1     55554717      0.84%     99.29% # Number of insts commited each cycle
system.switch_cpus_1.commit.committed_per_cycle::2     32104180      0.49%     99.78% # Number of insts commited each cycle
system.switch_cpus_1.commit.committed_per_cycle::3      6061656      0.09%     99.87% # Number of insts commited each cycle
system.switch_cpus_1.commit.committed_per_cycle::4      1675306      0.03%     99.89% # Number of insts commited each cycle
system.switch_cpus_1.commit.committed_per_cycle::5        25031      0.00%     99.90% # Number of insts commited each cycle
system.switch_cpus_1.commit.committed_per_cycle::6         3193      0.00%     99.90% # Number of insts commited each cycle
system.switch_cpus_1.commit.committed_per_cycle::7        40365      0.00%     99.90% # Number of insts commited each cycle
system.switch_cpus_1.commit.committed_per_cycle::8      6865699      0.10%    100.00% # Number of insts commited each cycle
system.switch_cpus_1.commit.committed_per_cycle::overflows            0      0.00%    100.00% # Number of insts commited each cycle
system.switch_cpus_1.commit.committed_per_cycle::min_value            0                       # Number of insts commited each cycle
system.switch_cpus_1.commit.committed_per_cycle::max_value            8                       # Number of insts commited each cycle
system.switch_cpus_1.commit.committed_per_cycle::total   6602930293                       # Number of insts commited each cycle
system.switch_cpus_1.commit.committedInsts    200001729                       # Number of instructions committed
system.switch_cpus_1.commit.committedOps    200001729                       # Number of ops (including micro ops) committed
system.switch_cpus_1.commit.swp_count               0                       # Number of s/w prefetches committed
system.switch_cpus_1.commit.refs             64266478                       # Number of memory references committed
system.switch_cpus_1.commit.loads            64254151                       # Number of loads committed
system.switch_cpus_1.commit.membars                 0                       # Number of memory barriers committed
system.switch_cpus_1.commit.branches         49624817                       # Number of branches committed
system.switch_cpus_1.commit.fp_insts                0                       # Number of committed floating point instructions.
system.switch_cpus_1.commit.int_insts       199961763                       # Number of committed integer instructions.
system.switch_cpus_1.commit.function_calls          438                       # Number of function calls committed.
system.switch_cpus_1.commit.op_class_0::No_OpClass         1722      0.00%      0.00% # Class of committed instruction
system.switch_cpus_1.commit.op_class_0::IntAlu    135733506     67.87%     67.87% # Class of committed instruction
system.switch_cpus_1.commit.op_class_0::IntMult           23      0.00%     67.87% # Class of committed instruction
system.switch_cpus_1.commit.op_class_0::IntDiv            0      0.00%     67.87% # Class of committed instruction
system.switch_cpus_1.commit.op_class_0::FloatAdd            0      0.00%     67.87% # Class of committed instruction
system.switch_cpus_1.commit.op_class_0::FloatCmp            0      0.00%     67.87% # Class of committed instruction
system.switch_cpus_1.commit.op_class_0::FloatCvt            0      0.00%     67.87% # Class of committed instruction
system.switch_cpus_1.commit.op_class_0::FloatMult            0      0.00%     67.87% # Class of committed instruction
system.switch_cpus_1.commit.op_class_0::FloatMultAcc            0      0.00%     67.87% # Class of committed instruction
system.switch_cpus_1.commit.op_class_0::FloatDiv            0      0.00%     67.87% # Class of committed instruction
system.switch_cpus_1.commit.op_class_0::FloatMisc            0      0.00%     67.87% # Class of committed instruction
system.switch_cpus_1.commit.op_class_0::FloatSqrt            0      0.00%     67.87% # Class of committed instruction
system.switch_cpus_1.commit.op_class_0::SimdAdd            0      0.00%     67.87% # Class of committed instruction
system.switch_cpus_1.commit.op_class_0::SimdAddAcc            0      0.00%     67.87% # Class of committed instruction
system.switch_cpus_1.commit.op_class_0::SimdAlu            0      0.00%     67.87% # Class of committed instruction
system.switch_cpus_1.commit.op_class_0::SimdCmp            0      0.00%     67.87% # Class of committed instruction
system.switch_cpus_1.commit.op_class_0::SimdCvt            0      0.00%     67.87% # Class of committed instruction
system.switch_cpus_1.commit.op_class_0::SimdMisc            0      0.00%     67.87% # Class of committed instruction
system.switch_cpus_1.commit.op_class_0::SimdMult            0      0.00%     67.87% # Class of committed instruction
system.switch_cpus_1.commit.op_class_0::SimdMultAcc            0      0.00%     67.87% # Class of committed instruction
system.switch_cpus_1.commit.op_class_0::SimdShift            0      0.00%     67.87% # Class of committed instruction
system.switch_cpus_1.commit.op_class_0::SimdShiftAcc            0      0.00%     67.87% # Class of committed instruction
system.switch_cpus_1.commit.op_class_0::SimdSqrt            0      0.00%     67.87% # Class of committed instruction
system.switch_cpus_1.commit.op_class_0::SimdFloatAdd            0      0.00%     67.87% # Class of committed instruction
system.switch_cpus_1.commit.op_class_0::SimdFloatAlu            0      0.00%     67.87% # Class of committed instruction
system.switch_cpus_1.commit.op_class_0::SimdFloatCmp            0      0.00%     67.87% # Class of committed instruction
system.switch_cpus_1.commit.op_class_0::SimdFloatCvt            0      0.00%     67.87% # Class of committed instruction
system.switch_cpus_1.commit.op_class_0::SimdFloatDiv            0      0.00%     67.87% # Class of committed instruction
system.switch_cpus_1.commit.op_class_0::SimdFloatMisc            0      0.00%     67.87% # Class of committed instruction
system.switch_cpus_1.commit.op_class_0::SimdFloatMult            0      0.00%     67.87% # Class of committed instruction
system.switch_cpus_1.commit.op_class_0::SimdFloatMultAcc            0      0.00%     67.87% # Class of committed instruction
system.switch_cpus_1.commit.op_class_0::SimdFloatSqrt            0      0.00%     67.87% # Class of committed instruction
system.switch_cpus_1.commit.op_class_0::MemRead     64254151     32.13%     99.99% # Class of committed instruction
system.switch_cpus_1.commit.op_class_0::MemWrite        12327      0.01%    100.00% # Class of committed instruction
system.switch_cpus_1.commit.op_class_0::FloatMemRead            0      0.00%    100.00% # Class of committed instruction
system.switch_cpus_1.commit.op_class_0::FloatMemWrite            0      0.00%    100.00% # Class of committed instruction
system.switch_cpus_1.commit.op_class_0::IprAccess            0      0.00%    100.00% # Class of committed instruction
system.switch_cpus_1.commit.op_class_0::InstPrefetch            0      0.00%    100.00% # Class of committed instruction
system.switch_cpus_1.commit.op_class_0::total    200001729                       # Class of committed instruction
system.switch_cpus_1.commit.bw_lim_events      6865699                       # number cycles where commit BW limit reached
system.switch_cpus_1.rob.rob_reads         9236815768                       # The number of ROB reads
system.switch_cpus_1.rob.rob_writes        6396251113                       # The number of ROB writes
system.switch_cpus_1.timesIdled                    10                       # Number of times that the entire CPU went into an idle state and unscheduled itself
system.switch_cpus_1.idleCycles                   974                       # Total number of cycles that the CPU has spent unscheduled due to idling
system.switch_cpus_1.committedInsts         200000007                       # Number of Instructions Simulated
system.switch_cpus_1.committedOps           200000007                       # Number of Ops (including micro ops) Simulated
system.switch_cpus_1.cpi                    34.837527                       # CPI: Cycles Per Instruction
system.switch_cpus_1.cpi_total              34.837527                       # CPI: Total CPI of All Threads
system.switch_cpus_1.ipc                     0.028705                       # IPC: Instructions Per Cycle
system.switch_cpus_1.ipc_total               0.028705                       # IPC: Total IPC of All Threads
system.switch_cpus_1.int_regfile_reads     2717053704                       # number of integer regfile reads
system.switch_cpus_1.int_regfile_writes     945049824                       # number of integer regfile writes
system.switch_cpus_1.fp_regfile_writes             32                       # number of floating regfile writes
system.tol3bus.snoop_filter.tot_requests    284833318                       # Total number of requests made to the snoop filter.
system.tol3bus.snoop_filter.hit_single_requests    142414800                       # Number of requests hitting in the snoop filter with a single holder of the requested data.
system.tol3bus.snoop_filter.hit_multi_requests            0                       # Number of requests hitting in the snoop filter with multiple (>1) holders of the requested data.
system.tol3bus.snoop_filter.tot_snoops         167876                       # Total number of snoops made to the snoop filter.
system.tol3bus.snoop_filter.hit_single_snoops       167876                       # Number of snoops hitting in the snoop filter with a single holder of the requested data.
system.tol3bus.snoop_filter.hit_multi_snoops            0                       # Number of snoops hitting in the snoop filter with multiple (>1) holders of the requested data.
system.tol3bus.pwrStateResidencyTicks::UNDEFINED 175084252315173                       # Cumulative time (in ticks) in various power states
system.tol3bus.trans_dist::ReadResp         142404659                       # Transaction distribution
system.tol3bus.trans_dist::WritebackDirty      6134495                       # Transaction distribution
system.tol3bus.trans_dist::CleanEvict       204386032                       # Transaction distribution
system.tol3bus.trans_dist::ReadExReq            13859                       # Transaction distribution
system.tol3bus.trans_dist::ReadExResp           13859                       # Transaction distribution
system.tol3bus.trans_dist::ReadSharedReq    142404659                       # Transaction distribution
system.tol3bus.pkt_count_system.cpu.l2.mem_side::system.l3.cpu_side    427251836                       # Packet count per connected master and slave (bytes)
system.tol3bus.pkt_size_system.cpu.l2.mem_side::system.l3.cpu_side   9500315968                       # Cumulative packet size per connected master and slave (bytes)
system.tol3bus.snoops                        68105727                       # Total snoops (count)
system.tol3bus.snoopTraffic                   7076864                       # Total snoop traffic (bytes)
system.tol3bus.snoop_fanout::samples        210524245                       # Request fanout histogram
system.tol3bus.snoop_fanout::mean            0.000797                       # Request fanout histogram
system.tol3bus.snoop_fanout::stdev           0.028227                       # Request fanout histogram
system.tol3bus.snoop_fanout::underflows             0      0.00%      0.00% # Request fanout histogram
system.tol3bus.snoop_fanout::0              210356369     99.92%     99.92% # Request fanout histogram
system.tol3bus.snoop_fanout::1                 167876      0.08%    100.00% # Request fanout histogram
system.tol3bus.snoop_fanout::overflows              0      0.00%    100.00% # Request fanout histogram
system.tol3bus.snoop_fanout::min_value              0                       # Request fanout histogram
system.tol3bus.snoop_fanout::max_value              1                       # Request fanout histogram
system.tol3bus.snoop_fanout::total          210524245                       # Request fanout histogram
system.tol3bus.reqLayer0.occupancy        96855459921                       # Layer occupancy (ticks)
system.tol3bus.reqLayer0.utilization              0.7                       # Layer utilization (%)
system.tol3bus.respLayer0.occupancy       94850732988                       # Layer occupancy (ticks)
system.tol3bus.respLayer0.utilization             0.7                       # Layer utilization (%)

---------- End Simulation Statistics   ----------
