
---------- Begin Simulation Statistics ----------
sim_seconds                                  2.567305                       # Number of seconds simulated
sim_ticks                                2567304621171                       # Number of ticks simulated
final_tick                               146044292938245                       # Number of ticks from beginning of simulation (restored from checkpoints and never reset)
sim_freq                                 1000000000000                       # Frequency of simulated ticks
host_inst_rate                                 293210                       # Simulator instruction rate (inst/s)
host_op_rate                                   293210                       # Simulator op (including micro ops) rate (op/s)
host_tick_rate                              627300380                       # Simulator tick rate (ticks/s)
host_mem_usage                                2548040                       # Number of bytes of host memory used
host_seconds                                  4092.62                       # Real time elapsed on the host
sim_insts                                  1200000006                       # Number of instructions simulated
sim_ops                                    1200000006                       # Number of ops (including micro ops) simulated
system.voltage_domain.voltage                       1                       # Voltage in Volts
system.clk_domain.clock                          1000                       # Clock period in ticks
system.mem_ctrls0.pwrStateResidencyTicks::UNDEFINED 146044292938245                       # Cumulative time (in ticks) in various power states
system.mem_ctrls0.bytes_read::cpu.inst            128                       # Number of bytes read from this memory
system.mem_ctrls0.bytes_read::cpu.data            256                       # Number of bytes read from this memory
system.mem_ctrls0.bytes_read::switch_cpus.inst        20864                       # Number of bytes read from this memory
system.mem_ctrls0.bytes_read::switch_cpus.data    440896256                       # Number of bytes read from this memory
system.mem_ctrls0.bytes_read::switch_cpus_1.inst         6720                       # Number of bytes read from this memory
system.mem_ctrls0.bytes_read::switch_cpus_1.data     83806592                       # Number of bytes read from this memory
system.mem_ctrls0.bytes_read::total         524730816                       # Number of bytes read from this memory
system.mem_ctrls0.bytes_inst_read::cpu.inst          128                       # Number of instructions bytes read from this memory
system.mem_ctrls0.bytes_inst_read::switch_cpus.inst        20864                       # Number of instructions bytes read from this memory
system.mem_ctrls0.bytes_inst_read::switch_cpus_1.inst         6720                       # Number of instructions bytes read from this memory
system.mem_ctrls0.bytes_inst_read::total        27712                       # Number of instructions bytes read from this memory
system.mem_ctrls0.bytes_written::writebacks    280432640                       # Number of bytes written to this memory
system.mem_ctrls0.bytes_written::total      280432640                       # Number of bytes written to this memory
system.mem_ctrls0.num_reads::cpu.inst               2                       # Number of read requests responded to by this memory
system.mem_ctrls0.num_reads::cpu.data               4                       # Number of read requests responded to by this memory
system.mem_ctrls0.num_reads::switch_cpus.inst          326                       # Number of read requests responded to by this memory
system.mem_ctrls0.num_reads::switch_cpus.data      6889004                       # Number of read requests responded to by this memory
system.mem_ctrls0.num_reads::switch_cpus_1.inst          105                       # Number of read requests responded to by this memory
system.mem_ctrls0.num_reads::switch_cpus_1.data      1309478                       # Number of read requests responded to by this memory
system.mem_ctrls0.num_reads::total            8198919                       # Number of read requests responded to by this memory
system.mem_ctrls0.num_writes::writebacks      4381760                       # Number of write requests responded to by this memory
system.mem_ctrls0.num_writes::total           4381760                       # Number of write requests responded to by this memory
system.mem_ctrls0.bw_read::cpu.inst                50                       # Total read bandwidth from this memory (bytes/s)
system.mem_ctrls0.bw_read::cpu.data               100                       # Total read bandwidth from this memory (bytes/s)
system.mem_ctrls0.bw_read::switch_cpus.inst         8127                       # Total read bandwidth from this memory (bytes/s)
system.mem_ctrls0.bw_read::switch_cpus.data    171735077                       # Total read bandwidth from this memory (bytes/s)
system.mem_ctrls0.bw_read::switch_cpus_1.inst         2618                       # Total read bandwidth from this memory (bytes/s)
system.mem_ctrls0.bw_read::switch_cpus_1.data     32643805                       # Total read bandwidth from this memory (bytes/s)
system.mem_ctrls0.bw_read::total            204389776                       # Total read bandwidth from this memory (bytes/s)
system.mem_ctrls0.bw_inst_read::cpu.inst           50                       # Instruction read bandwidth from this memory (bytes/s)
system.mem_ctrls0.bw_inst_read::switch_cpus.inst         8127                       # Instruction read bandwidth from this memory (bytes/s)
system.mem_ctrls0.bw_inst_read::switch_cpus_1.inst         2618                       # Instruction read bandwidth from this memory (bytes/s)
system.mem_ctrls0.bw_inst_read::total           10794                       # Instruction read bandwidth from this memory (bytes/s)
system.mem_ctrls0.bw_write::writebacks      109232320                       # Write bandwidth from this memory (bytes/s)
system.mem_ctrls0.bw_write::total           109232320                       # Write bandwidth from this memory (bytes/s)
system.mem_ctrls0.bw_total::writebacks      109232320                       # Total bandwidth to/from this memory (bytes/s)
system.mem_ctrls0.bw_total::cpu.inst               50                       # Total bandwidth to/from this memory (bytes/s)
system.mem_ctrls0.bw_total::cpu.data              100                       # Total bandwidth to/from this memory (bytes/s)
system.mem_ctrls0.bw_total::switch_cpus.inst         8127                       # Total bandwidth to/from this memory (bytes/s)
system.mem_ctrls0.bw_total::switch_cpus.data    171735077                       # Total bandwidth to/from this memory (bytes/s)
system.mem_ctrls0.bw_total::switch_cpus_1.inst         2618                       # Total bandwidth to/from this memory (bytes/s)
system.mem_ctrls0.bw_total::switch_cpus_1.data     32643805                       # Total bandwidth to/from this memory (bytes/s)
system.mem_ctrls0.bw_total::total           313622096                       # Total bandwidth to/from this memory (bytes/s)
system.mem_ctrls0.readReqs                    8198919                       # Number of read requests accepted
system.mem_ctrls0.writeReqs                   4381760                       # Number of write requests accepted
system.mem_ctrls0.readBursts                  8198919                       # Number of DRAM read bursts, including those serviced by the write queue
system.mem_ctrls0.writeBursts                 4381760                       # Number of DRAM write bursts, including those merged in the write queue
system.mem_ctrls0.bytesReadDRAM             524730496                       # Total number of bytes read from DRAM
system.mem_ctrls0.bytesReadWrQ                    320                       # Total number of bytes read from write queue
system.mem_ctrls0.bytesWritten              280430976                       # Total number of bytes written to DRAM
system.mem_ctrls0.bytesReadSys              524730816                       # Total read bytes from the system interface side
system.mem_ctrls0.bytesWrittenSys           280432640                       # Total written bytes from the system interface side
system.mem_ctrls0.servicedByWrQ                     5                       # Number of DRAM read bursts serviced by the write queue
system.mem_ctrls0.mergedWrBursts                    0                       # Number of DRAM write bursts merged with an existing one
system.mem_ctrls0.neitherReadNorWriteReqs            0                       # Number of requests that are neither read nor write
system.mem_ctrls0.perBankRdBursts::0           512736                       # Per bank write bursts
system.mem_ctrls0.perBankRdBursts::1           512165                       # Per bank write bursts
system.mem_ctrls0.perBankRdBursts::2           512979                       # Per bank write bursts
system.mem_ctrls0.perBankRdBursts::3           513187                       # Per bank write bursts
system.mem_ctrls0.perBankRdBursts::4           513127                       # Per bank write bursts
system.mem_ctrls0.perBankRdBursts::5           511919                       # Per bank write bursts
system.mem_ctrls0.perBankRdBursts::6           511707                       # Per bank write bursts
system.mem_ctrls0.perBankRdBursts::7           512324                       # Per bank write bursts
system.mem_ctrls0.perBankRdBursts::8           512402                       # Per bank write bursts
system.mem_ctrls0.perBankRdBursts::9           512028                       # Per bank write bursts
system.mem_ctrls0.perBankRdBursts::10          511012                       # Per bank write bursts
system.mem_ctrls0.perBankRdBursts::11          512958                       # Per bank write bursts
system.mem_ctrls0.perBankRdBursts::12          512711                       # Per bank write bursts
system.mem_ctrls0.perBankRdBursts::13          512253                       # Per bank write bursts
system.mem_ctrls0.perBankRdBursts::14          512655                       # Per bank write bursts
system.mem_ctrls0.perBankRdBursts::15          512751                       # Per bank write bursts
system.mem_ctrls0.perBankWrBursts::0           275459                       # Per bank write bursts
system.mem_ctrls0.perBankWrBursts::1           274004                       # Per bank write bursts
system.mem_ctrls0.perBankWrBursts::2           273447                       # Per bank write bursts
system.mem_ctrls0.perBankWrBursts::3           274053                       # Per bank write bursts
system.mem_ctrls0.perBankWrBursts::4           274016                       # Per bank write bursts
system.mem_ctrls0.perBankWrBursts::5           273818                       # Per bank write bursts
system.mem_ctrls0.perBankWrBursts::6           273639                       # Per bank write bursts
system.mem_ctrls0.perBankWrBursts::7           273187                       # Per bank write bursts
system.mem_ctrls0.perBankWrBursts::8           272916                       # Per bank write bursts
system.mem_ctrls0.perBankWrBursts::9           272793                       # Per bank write bursts
system.mem_ctrls0.perBankWrBursts::10          273789                       # Per bank write bursts
system.mem_ctrls0.perBankWrBursts::11          275313                       # Per bank write bursts
system.mem_ctrls0.perBankWrBursts::12          274156                       # Per bank write bursts
system.mem_ctrls0.perBankWrBursts::13          272884                       # Per bank write bursts
system.mem_ctrls0.perBankWrBursts::14          273326                       # Per bank write bursts
system.mem_ctrls0.perBankWrBursts::15          274934                       # Per bank write bursts
system.mem_ctrls0.numRdRetry                        0                       # Number of times read queue was full causing retry
system.mem_ctrls0.numWrRetry                        0                       # Number of times write queue was full causing retry
system.mem_ctrls0.totGap                 2567304579879                       # Total gap between requests
system.mem_ctrls0.readPktSize::0                    0                       # Read request sizes (log2)
system.mem_ctrls0.readPktSize::1                    0                       # Read request sizes (log2)
system.mem_ctrls0.readPktSize::2                    0                       # Read request sizes (log2)
system.mem_ctrls0.readPktSize::3                    0                       # Read request sizes (log2)
system.mem_ctrls0.readPktSize::4                    0                       # Read request sizes (log2)
system.mem_ctrls0.readPktSize::5                    0                       # Read request sizes (log2)
system.mem_ctrls0.readPktSize::6              8198919                       # Read request sizes (log2)
system.mem_ctrls0.writePktSize::0                   0                       # Write request sizes (log2)
system.mem_ctrls0.writePktSize::1                   0                       # Write request sizes (log2)
system.mem_ctrls0.writePktSize::2                   0                       # Write request sizes (log2)
system.mem_ctrls0.writePktSize::3                   0                       # Write request sizes (log2)
system.mem_ctrls0.writePktSize::4                   0                       # Write request sizes (log2)
system.mem_ctrls0.writePktSize::5                   0                       # Write request sizes (log2)
system.mem_ctrls0.writePktSize::6             4381760                       # Write request sizes (log2)
system.mem_ctrls0.rdQLenPdf::0                7737169                       # What read queue length does an incoming req see
system.mem_ctrls0.rdQLenPdf::1                 332030                       # What read queue length does an incoming req see
system.mem_ctrls0.rdQLenPdf::2                 110925                       # What read queue length does an incoming req see
system.mem_ctrls0.rdQLenPdf::3                  18790                       # What read queue length does an incoming req see
system.mem_ctrls0.rdQLenPdf::4                      0                       # What read queue length does an incoming req see
system.mem_ctrls0.rdQLenPdf::5                      0                       # What read queue length does an incoming req see
system.mem_ctrls0.rdQLenPdf::6                      0                       # What read queue length does an incoming req see
system.mem_ctrls0.rdQLenPdf::7                      0                       # What read queue length does an incoming req see
system.mem_ctrls0.rdQLenPdf::8                      0                       # What read queue length does an incoming req see
system.mem_ctrls0.rdQLenPdf::9                      0                       # What read queue length does an incoming req see
system.mem_ctrls0.rdQLenPdf::10                     0                       # What read queue length does an incoming req see
system.mem_ctrls0.rdQLenPdf::11                     0                       # What read queue length does an incoming req see
system.mem_ctrls0.rdQLenPdf::12                     0                       # What read queue length does an incoming req see
system.mem_ctrls0.rdQLenPdf::13                     0                       # What read queue length does an incoming req see
system.mem_ctrls0.rdQLenPdf::14                     0                       # What read queue length does an incoming req see
system.mem_ctrls0.rdQLenPdf::15                     0                       # What read queue length does an incoming req see
system.mem_ctrls0.rdQLenPdf::16                     0                       # What read queue length does an incoming req see
system.mem_ctrls0.rdQLenPdf::17                     0                       # What read queue length does an incoming req see
system.mem_ctrls0.rdQLenPdf::18                     0                       # What read queue length does an incoming req see
system.mem_ctrls0.rdQLenPdf::19                     0                       # What read queue length does an incoming req see
system.mem_ctrls0.rdQLenPdf::20                     0                       # What read queue length does an incoming req see
system.mem_ctrls0.rdQLenPdf::21                     0                       # What read queue length does an incoming req see
system.mem_ctrls0.rdQLenPdf::22                     0                       # What read queue length does an incoming req see
system.mem_ctrls0.rdQLenPdf::23                     0                       # What read queue length does an incoming req see
system.mem_ctrls0.rdQLenPdf::24                     0                       # What read queue length does an incoming req see
system.mem_ctrls0.rdQLenPdf::25                     0                       # What read queue length does an incoming req see
system.mem_ctrls0.rdQLenPdf::26                     0                       # What read queue length does an incoming req see
system.mem_ctrls0.rdQLenPdf::27                     0                       # What read queue length does an incoming req see
system.mem_ctrls0.rdQLenPdf::28                     0                       # What read queue length does an incoming req see
system.mem_ctrls0.rdQLenPdf::29                     0                       # What read queue length does an incoming req see
system.mem_ctrls0.rdQLenPdf::30                     0                       # What read queue length does an incoming req see
system.mem_ctrls0.rdQLenPdf::31                     0                       # What read queue length does an incoming req see
system.mem_ctrls0.wrQLenPdf::0                      2                       # What write queue length does an incoming req see
system.mem_ctrls0.wrQLenPdf::1                      2                       # What write queue length does an incoming req see
system.mem_ctrls0.wrQLenPdf::2                      2                       # What write queue length does an incoming req see
system.mem_ctrls0.wrQLenPdf::3                      2                       # What write queue length does an incoming req see
system.mem_ctrls0.wrQLenPdf::4                      2                       # What write queue length does an incoming req see
system.mem_ctrls0.wrQLenPdf::5                      2                       # What write queue length does an incoming req see
system.mem_ctrls0.wrQLenPdf::6                      2                       # What write queue length does an incoming req see
system.mem_ctrls0.wrQLenPdf::7                      2                       # What write queue length does an incoming req see
system.mem_ctrls0.wrQLenPdf::8                      2                       # What write queue length does an incoming req see
system.mem_ctrls0.wrQLenPdf::9                      2                       # What write queue length does an incoming req see
system.mem_ctrls0.wrQLenPdf::10                     2                       # What write queue length does an incoming req see
system.mem_ctrls0.wrQLenPdf::11                     2                       # What write queue length does an incoming req see
system.mem_ctrls0.wrQLenPdf::12                     2                       # What write queue length does an incoming req see
system.mem_ctrls0.wrQLenPdf::13                     2                       # What write queue length does an incoming req see
system.mem_ctrls0.wrQLenPdf::14                     2                       # What write queue length does an incoming req see
system.mem_ctrls0.wrQLenPdf::15                138167                       # What write queue length does an incoming req see
system.mem_ctrls0.wrQLenPdf::16                145154                       # What write queue length does an incoming req see
system.mem_ctrls0.wrQLenPdf::17                245784                       # What write queue length does an incoming req see
system.mem_ctrls0.wrQLenPdf::18                255363                       # What write queue length does an incoming req see
system.mem_ctrls0.wrQLenPdf::19                257086                       # What write queue length does an incoming req see
system.mem_ctrls0.wrQLenPdf::20                256967                       # What write queue length does an incoming req see
system.mem_ctrls0.wrQLenPdf::21                256956                       # What write queue length does an incoming req see
system.mem_ctrls0.wrQLenPdf::22                256832                       # What write queue length does an incoming req see
system.mem_ctrls0.wrQLenPdf::23                257033                       # What write queue length does an incoming req see
system.mem_ctrls0.wrQLenPdf::24                257016                       # What write queue length does an incoming req see
system.mem_ctrls0.wrQLenPdf::25                256795                       # What write queue length does an incoming req see
system.mem_ctrls0.wrQLenPdf::26                256650                       # What write queue length does an incoming req see
system.mem_ctrls0.wrQLenPdf::27                256699                       # What write queue length does an incoming req see
system.mem_ctrls0.wrQLenPdf::28                256755                       # What write queue length does an incoming req see
system.mem_ctrls0.wrQLenPdf::29                257201                       # What write queue length does an incoming req see
system.mem_ctrls0.wrQLenPdf::30                259328                       # What write queue length does an incoming req see
system.mem_ctrls0.wrQLenPdf::31                255953                       # What write queue length does an incoming req see
system.mem_ctrls0.wrQLenPdf::32                255568                       # What write queue length does an incoming req see
system.mem_ctrls0.wrQLenPdf::33                   318                       # What write queue length does an incoming req see
system.mem_ctrls0.wrQLenPdf::34                    75                       # What write queue length does an incoming req see
system.mem_ctrls0.wrQLenPdf::35                    24                       # What write queue length does an incoming req see
system.mem_ctrls0.wrQLenPdf::36                     3                       # What write queue length does an incoming req see
system.mem_ctrls0.wrQLenPdf::37                     1                       # What write queue length does an incoming req see
system.mem_ctrls0.wrQLenPdf::38                     1                       # What write queue length does an incoming req see
system.mem_ctrls0.wrQLenPdf::39                     1                       # What write queue length does an incoming req see
system.mem_ctrls0.wrQLenPdf::40                     0                       # What write queue length does an incoming req see
system.mem_ctrls0.wrQLenPdf::41                     0                       # What write queue length does an incoming req see
system.mem_ctrls0.wrQLenPdf::42                     0                       # What write queue length does an incoming req see
system.mem_ctrls0.wrQLenPdf::43                     0                       # What write queue length does an incoming req see
system.mem_ctrls0.wrQLenPdf::44                     0                       # What write queue length does an incoming req see
system.mem_ctrls0.wrQLenPdf::45                     0                       # What write queue length does an incoming req see
system.mem_ctrls0.wrQLenPdf::46                     0                       # What write queue length does an incoming req see
system.mem_ctrls0.wrQLenPdf::47                     0                       # What write queue length does an incoming req see
system.mem_ctrls0.wrQLenPdf::48                     0                       # What write queue length does an incoming req see
system.mem_ctrls0.wrQLenPdf::49                     0                       # What write queue length does an incoming req see
system.mem_ctrls0.wrQLenPdf::50                     0                       # What write queue length does an incoming req see
system.mem_ctrls0.wrQLenPdf::51                     0                       # What write queue length does an incoming req see
system.mem_ctrls0.wrQLenPdf::52                     0                       # What write queue length does an incoming req see
system.mem_ctrls0.wrQLenPdf::53                     0                       # What write queue length does an incoming req see
system.mem_ctrls0.wrQLenPdf::54                     0                       # What write queue length does an incoming req see
system.mem_ctrls0.wrQLenPdf::55                     0                       # What write queue length does an incoming req see
system.mem_ctrls0.wrQLenPdf::56                     0                       # What write queue length does an incoming req see
system.mem_ctrls0.wrQLenPdf::57                     0                       # What write queue length does an incoming req see
system.mem_ctrls0.wrQLenPdf::58                     0                       # What write queue length does an incoming req see
system.mem_ctrls0.wrQLenPdf::59                     0                       # What write queue length does an incoming req see
system.mem_ctrls0.wrQLenPdf::60                     0                       # What write queue length does an incoming req see
system.mem_ctrls0.wrQLenPdf::61                     0                       # What write queue length does an incoming req see
system.mem_ctrls0.wrQLenPdf::62                     0                       # What write queue length does an incoming req see
system.mem_ctrls0.wrQLenPdf::63                     0                       # What write queue length does an incoming req see
system.mem_ctrls0.bytesPerActivate::samples      8717571                       # Bytes accessed per row activation
system.mem_ctrls0.bytesPerActivate::mean    92.360707                       # Bytes accessed per row activation
system.mem_ctrls0.bytesPerActivate::gmean    82.176907                       # Bytes accessed per row activation
system.mem_ctrls0.bytesPerActivate::stdev    56.904389                       # Bytes accessed per row activation
system.mem_ctrls0.bytesPerActivate::0-127      6300043     72.27%     72.27% # Bytes accessed per row activation
system.mem_ctrls0.bytesPerActivate::128-255      2005168     23.00%     95.27% # Bytes accessed per row activation
system.mem_ctrls0.bytesPerActivate::256-383       379320      4.35%     99.62% # Bytes accessed per row activation
system.mem_ctrls0.bytesPerActivate::384-511        25476      0.29%     99.91% # Bytes accessed per row activation
system.mem_ctrls0.bytesPerActivate::512-639         4120      0.05%     99.96% # Bytes accessed per row activation
system.mem_ctrls0.bytesPerActivate::640-767         1329      0.02%     99.98% # Bytes accessed per row activation
system.mem_ctrls0.bytesPerActivate::768-895          660      0.01%     99.98% # Bytes accessed per row activation
system.mem_ctrls0.bytesPerActivate::896-1023          396      0.00%     99.99% # Bytes accessed per row activation
system.mem_ctrls0.bytesPerActivate::1024-1151         1059      0.01%    100.00% # Bytes accessed per row activation
system.mem_ctrls0.bytesPerActivate::total      8717571                       # Bytes accessed per row activation
system.mem_ctrls0.rdPerTurnAround::samples       255322                       # Reads before turning the bus around for writes
system.mem_ctrls0.rdPerTurnAround::mean     32.112011                       # Reads before turning the bus around for writes
system.mem_ctrls0.rdPerTurnAround::stdev    56.144899                       # Reads before turning the bus around for writes
system.mem_ctrls0.rdPerTurnAround::0-1023       255315    100.00%    100.00% # Reads before turning the bus around for writes
system.mem_ctrls0.rdPerTurnAround::1024-2047            6      0.00%    100.00% # Reads before turning the bus around for writes
system.mem_ctrls0.rdPerTurnAround::27648-28671            1      0.00%    100.00% # Reads before turning the bus around for writes
system.mem_ctrls0.rdPerTurnAround::total       255322                       # Reads before turning the bus around for writes
system.mem_ctrls0.wrPerTurnAround::samples       255322                       # Writes before turning the bus around for reads
system.mem_ctrls0.wrPerTurnAround::mean     17.161600                       # Writes before turning the bus around for reads
system.mem_ctrls0.wrPerTurnAround::gmean    17.128240                       # Writes before turning the bus around for reads
system.mem_ctrls0.wrPerTurnAround::stdev     1.070003                       # Writes before turning the bus around for reads
system.mem_ctrls0.wrPerTurnAround::16          112302     43.98%     43.98% # Writes before turning the bus around for reads
system.mem_ctrls0.wrPerTurnAround::17            3914      1.53%     45.52% # Writes before turning the bus around for reads
system.mem_ctrls0.wrPerTurnAround::18          126214     49.43%     94.95% # Writes before turning the bus around for reads
system.mem_ctrls0.wrPerTurnAround::19           11656      4.57%     99.52% # Writes before turning the bus around for reads
system.mem_ctrls0.wrPerTurnAround::20            1017      0.40%     99.91% # Writes before turning the bus around for reads
system.mem_ctrls0.wrPerTurnAround::21             163      0.06%     99.98% # Writes before turning the bus around for reads
system.mem_ctrls0.wrPerTurnAround::22              32      0.01%     99.99% # Writes before turning the bus around for reads
system.mem_ctrls0.wrPerTurnAround::23               9      0.00%     99.99% # Writes before turning the bus around for reads
system.mem_ctrls0.wrPerTurnAround::24               7      0.00%    100.00% # Writes before turning the bus around for reads
system.mem_ctrls0.wrPerTurnAround::25               4      0.00%    100.00% # Writes before turning the bus around for reads
system.mem_ctrls0.wrPerTurnAround::26               2      0.00%    100.00% # Writes before turning the bus around for reads
system.mem_ctrls0.wrPerTurnAround::27               2      0.00%    100.00% # Writes before turning the bus around for reads
system.mem_ctrls0.wrPerTurnAround::total       255322                       # Writes before turning the bus around for reads
system.mem_ctrls0.totQLat                218960599700                       # Total ticks spent queuing
system.mem_ctrls0.totMemAccLat           372690237200                       # Total ticks spent from burst creation until serviced by the DRAM
system.mem_ctrls0.totBusLat               40994570000                       # Total ticks spent in databus transfers
system.mem_ctrls0.avgQLat                    26706.05                       # Average queueing delay per DRAM burst
system.mem_ctrls0.avgBusLat                   5000.00                       # Average bus latency per DRAM burst
system.mem_ctrls0.avgMemAccLat               45456.05                       # Average memory access latency per DRAM burst
system.mem_ctrls0.avgRdBW                      204.39                       # Average DRAM read bandwidth in MiByte/s
system.mem_ctrls0.avgWrBW                      109.23                       # Average achieved write bandwidth in MiByte/s
system.mem_ctrls0.avgRdBWSys                   204.39                       # Average system read bandwidth in MiByte/s
system.mem_ctrls0.avgWrBWSys                   109.23                       # Average system write bandwidth in MiByte/s
system.mem_ctrls0.peakBW                     12800.00                       # Theoretical peak bandwidth in MiByte/s
system.mem_ctrls0.busUtil                        2.45                       # Data bus utilization in percentage
system.mem_ctrls0.busUtilRead                    1.60                       # Data bus utilization in percentage for reads
system.mem_ctrls0.busUtilWrite                   0.85                       # Data bus utilization in percentage for writes
system.mem_ctrls0.avgRdQLen                      1.03                       # Average read queue length when enqueuing
system.mem_ctrls0.avgWrQLen                     24.80                       # Average write queue length when enqueuing
system.mem_ctrls0.readRowHits                 2971726                       # Number of row buffer hits during reads
system.mem_ctrls0.writeRowHits                 891345                       # Number of row buffer hits during writes
system.mem_ctrls0.readRowHitRate                36.25                       # Row buffer hit rate for reads
system.mem_ctrls0.writeRowHitRate               20.34                       # Row buffer hit rate for writes
system.mem_ctrls0.avgGap                    204067.25                       # Average gap between requests
system.mem_ctrls0.pageHitRate                   30.71                       # Row buffer hit rate, read and write combined
system.mem_ctrls0_0.actEnergy             31102197000                       # Energy for activate commands per rank (pJ)
system.mem_ctrls0_0.preEnergy             16531198365                       # Energy for precharge commands per rank (pJ)
system.mem_ctrls0_0.readEnergy            29275028160                       # Energy for read commands per rank (pJ)
system.mem_ctrls0_0.writeEnergy           11440272060                       # Energy for write commands per rank (pJ)
system.mem_ctrls0_0.refreshEnergy        202234999200.000031                       # Energy for refresh commands per rank (pJ)
system.mem_ctrls0_0.actBackEnergy        192709807740                       # Energy for active background per rank (pJ)
system.mem_ctrls0_0.preBackEnergy          5311404000                       # Energy for precharge background per rank (pJ)
system.mem_ctrls0_0.actPowerDownEnergy   853070426880                       # Energy for active power-down per rank (pJ)
system.mem_ctrls0_0.prePowerDownEnergy    82076732160                       # Energy for precharge power-down per rank (pJ)
system.mem_ctrls0_0.selfRefreshEnergy     14250339945                       # Energy for self refresh per rank (pJ)
system.mem_ctrls0_0.totalEnergy          1438026517590                       # Total energy per rank (pJ)
system.mem_ctrls0_0.averagePower           560.130847                       # Core power per rank (mW)
system.mem_ctrls0_0.totalIdleTime        2130820450993                       # Total Idle time Per DRAM Rank
system.mem_ctrls0_0.memoryStateTime::IDLE   3412961751                       # Time in different power states
system.mem_ctrls0_0.memoryStateTime::REF  85584292000                       # Time in different power states
system.mem_ctrls0_0.memoryStateTime::SREF  46300039464                       # Time in different power states
system.mem_ctrls0_0.memoryStateTime::PRE_PDN 213742266665                       # Time in different power states
system.mem_ctrls0_0.memoryStateTime::ACT 347486861687                       # Time in different power states
system.mem_ctrls0_0.memoryStateTime::ACT_PDN 1870778199604                       # Time in different power states
system.mem_ctrls0_1.actEnergy             31141302780                       # Energy for activate commands per rank (pJ)
system.mem_ctrls0_1.preEnergy             16551983580                       # Energy for precharge commands per rank (pJ)
system.mem_ctrls0_1.readEnergy            29265217800                       # Energy for read commands per rank (pJ)
system.mem_ctrls0_1.writeEnergy           11432379420                       # Energy for write commands per rank (pJ)
system.mem_ctrls0_1.refreshEnergy        201993445680.000031                       # Energy for refresh commands per rank (pJ)
system.mem_ctrls0_1.actBackEnergy        191735070690                       # Energy for active background per rank (pJ)
system.mem_ctrls0_1.preBackEnergy          5302855200                       # Energy for precharge background per rank (pJ)
system.mem_ctrls0_1.actPowerDownEnergy   854867543970                       # Energy for active power-down per rank (pJ)
system.mem_ctrls0_1.prePowerDownEnergy    80898384000                       # Energy for precharge power-down per rank (pJ)
system.mem_ctrls0_1.selfRefreshEnergy     14424689505                       # Energy for self refresh per rank (pJ)
system.mem_ctrls0_1.totalEnergy          1437635970195                       # Total energy per rank (pJ)
system.mem_ctrls0_1.averagePower           559.978723                       # Core power per rank (mW)
system.mem_ctrls0_1.totalIdleTime        2132987158144                       # Total Idle time Per DRAM Rank
system.mem_ctrls0_1.memoryStateTime::IDLE   3353940271                       # Time in different power states
system.mem_ctrls0_1.memoryStateTime::REF  85480426000                       # Time in different power states
system.mem_ctrls0_1.memoryStateTime::SREF  47589658592                       # Time in different power states
system.mem_ctrls0_1.memoryStateTime::PRE_PDN 210672589815                       # Time in different power states
system.mem_ctrls0_1.memoryStateTime::ACT 345483096756                       # Time in different power states
system.mem_ctrls0_1.memoryStateTime::ACT_PDN 1874724909737                       # Time in different power states
system.mem_ctrls1.pwrStateResidencyTicks::UNDEFINED 146044292938245                       # Cumulative time (in ticks) in various power states
system.mem_ctrls1.bytes_read::cpu.inst             64                       # Number of bytes read from this memory
system.mem_ctrls1.bytes_read::cpu.data             64                       # Number of bytes read from this memory
system.mem_ctrls1.bytes_read::switch_cpus.inst        20288                       # Number of bytes read from this memory
system.mem_ctrls1.bytes_read::switch_cpus.data    440852160                       # Number of bytes read from this memory
system.mem_ctrls1.bytes_read::switch_cpus_1.inst         6656                       # Number of bytes read from this memory
system.mem_ctrls1.bytes_read::switch_cpus_1.data     83812736                       # Number of bytes read from this memory
system.mem_ctrls1.bytes_read::total         524691968                       # Number of bytes read from this memory
system.mem_ctrls1.bytes_inst_read::cpu.inst           64                       # Number of instructions bytes read from this memory
system.mem_ctrls1.bytes_inst_read::switch_cpus.inst        20288                       # Number of instructions bytes read from this memory
system.mem_ctrls1.bytes_inst_read::switch_cpus_1.inst         6656                       # Number of instructions bytes read from this memory
system.mem_ctrls1.bytes_inst_read::total        27008                       # Number of instructions bytes read from this memory
system.mem_ctrls1.bytes_written::writebacks    280435648                       # Number of bytes written to this memory
system.mem_ctrls1.bytes_written::total      280435648                       # Number of bytes written to this memory
system.mem_ctrls1.num_reads::cpu.inst               1                       # Number of read requests responded to by this memory
system.mem_ctrls1.num_reads::cpu.data               1                       # Number of read requests responded to by this memory
system.mem_ctrls1.num_reads::switch_cpus.inst          317                       # Number of read requests responded to by this memory
system.mem_ctrls1.num_reads::switch_cpus.data      6888315                       # Number of read requests responded to by this memory
system.mem_ctrls1.num_reads::switch_cpus_1.inst          104                       # Number of read requests responded to by this memory
system.mem_ctrls1.num_reads::switch_cpus_1.data      1309574                       # Number of read requests responded to by this memory
system.mem_ctrls1.num_reads::total            8198312                       # Number of read requests responded to by this memory
system.mem_ctrls1.num_writes::writebacks      4381807                       # Number of write requests responded to by this memory
system.mem_ctrls1.num_writes::total           4381807                       # Number of write requests responded to by this memory
system.mem_ctrls1.bw_read::cpu.inst                25                       # Total read bandwidth from this memory (bytes/s)
system.mem_ctrls1.bw_read::cpu.data                25                       # Total read bandwidth from this memory (bytes/s)
system.mem_ctrls1.bw_read::switch_cpus.inst         7902                       # Total read bandwidth from this memory (bytes/s)
system.mem_ctrls1.bw_read::switch_cpus.data    171717901                       # Total read bandwidth from this memory (bytes/s)
system.mem_ctrls1.bw_read::switch_cpus_1.inst         2593                       # Total read bandwidth from this memory (bytes/s)
system.mem_ctrls1.bw_read::switch_cpus_1.data     32646198                       # Total read bandwidth from this memory (bytes/s)
system.mem_ctrls1.bw_read::total            204374644                       # Total read bandwidth from this memory (bytes/s)
system.mem_ctrls1.bw_inst_read::cpu.inst           25                       # Instruction read bandwidth from this memory (bytes/s)
system.mem_ctrls1.bw_inst_read::switch_cpus.inst         7902                       # Instruction read bandwidth from this memory (bytes/s)
system.mem_ctrls1.bw_inst_read::switch_cpus_1.inst         2593                       # Instruction read bandwidth from this memory (bytes/s)
system.mem_ctrls1.bw_inst_read::total           10520                       # Instruction read bandwidth from this memory (bytes/s)
system.mem_ctrls1.bw_write::writebacks      109233492                       # Write bandwidth from this memory (bytes/s)
system.mem_ctrls1.bw_write::total           109233492                       # Write bandwidth from this memory (bytes/s)
system.mem_ctrls1.bw_total::writebacks      109233492                       # Total bandwidth to/from this memory (bytes/s)
system.mem_ctrls1.bw_total::cpu.inst               25                       # Total bandwidth to/from this memory (bytes/s)
system.mem_ctrls1.bw_total::cpu.data               25                       # Total bandwidth to/from this memory (bytes/s)
system.mem_ctrls1.bw_total::switch_cpus.inst         7902                       # Total bandwidth to/from this memory (bytes/s)
system.mem_ctrls1.bw_total::switch_cpus.data    171717901                       # Total bandwidth to/from this memory (bytes/s)
system.mem_ctrls1.bw_total::switch_cpus_1.inst         2593                       # Total bandwidth to/from this memory (bytes/s)
system.mem_ctrls1.bw_total::switch_cpus_1.data     32646198                       # Total bandwidth to/from this memory (bytes/s)
system.mem_ctrls1.bw_total::total           313608136                       # Total bandwidth to/from this memory (bytes/s)
system.mem_ctrls1.readReqs                    8198312                       # Number of read requests accepted
system.mem_ctrls1.writeReqs                   4381807                       # Number of write requests accepted
system.mem_ctrls1.readBursts                  8198312                       # Number of DRAM read bursts, including those serviced by the write queue
system.mem_ctrls1.writeBursts                 4381807                       # Number of DRAM write bursts, including those merged in the write queue
system.mem_ctrls1.bytesReadDRAM             524691520                       # Total number of bytes read from DRAM
system.mem_ctrls1.bytesReadWrQ                    448                       # Total number of bytes read from write queue
system.mem_ctrls1.bytesWritten              280434048                       # Total number of bytes written to DRAM
system.mem_ctrls1.bytesReadSys              524691968                       # Total read bytes from the system interface side
system.mem_ctrls1.bytesWrittenSys           280435648                       # Total written bytes from the system interface side
system.mem_ctrls1.servicedByWrQ                     7                       # Number of DRAM read bursts serviced by the write queue
system.mem_ctrls1.mergedWrBursts                    0                       # Number of DRAM write bursts merged with an existing one
system.mem_ctrls1.neitherReadNorWriteReqs            0                       # Number of requests that are neither read nor write
system.mem_ctrls1.perBankRdBursts::0           512312                       # Per bank write bursts
system.mem_ctrls1.perBankRdBursts::1           512694                       # Per bank write bursts
system.mem_ctrls1.perBankRdBursts::2           511763                       # Per bank write bursts
system.mem_ctrls1.perBankRdBursts::3           513931                       # Per bank write bursts
system.mem_ctrls1.perBankRdBursts::4           513106                       # Per bank write bursts
system.mem_ctrls1.perBankRdBursts::5           511951                       # Per bank write bursts
system.mem_ctrls1.perBankRdBursts::6           511724                       # Per bank write bursts
system.mem_ctrls1.perBankRdBursts::7           512441                       # Per bank write bursts
system.mem_ctrls1.perBankRdBursts::8           512836                       # Per bank write bursts
system.mem_ctrls1.perBankRdBursts::9           511377                       # Per bank write bursts
system.mem_ctrls1.perBankRdBursts::10          511189                       # Per bank write bursts
system.mem_ctrls1.perBankRdBursts::11          512571                       # Per bank write bursts
system.mem_ctrls1.perBankRdBursts::12          512666                       # Per bank write bursts
system.mem_ctrls1.perBankRdBursts::13          512376                       # Per bank write bursts
system.mem_ctrls1.perBankRdBursts::14          512403                       # Per bank write bursts
system.mem_ctrls1.perBankRdBursts::15          512965                       # Per bank write bursts
system.mem_ctrls1.perBankWrBursts::0           275393                       # Per bank write bursts
system.mem_ctrls1.perBankWrBursts::1           274088                       # Per bank write bursts
system.mem_ctrls1.perBankWrBursts::2           273277                       # Per bank write bursts
system.mem_ctrls1.perBankWrBursts::3           274144                       # Per bank write bursts
system.mem_ctrls1.perBankWrBursts::4           273946                       # Per bank write bursts
system.mem_ctrls1.perBankWrBursts::5           273867                       # Per bank write bursts
system.mem_ctrls1.perBankWrBursts::6           273714                       # Per bank write bursts
system.mem_ctrls1.perBankWrBursts::7           273074                       # Per bank write bursts
system.mem_ctrls1.perBankWrBursts::8           273049                       # Per bank write bursts
system.mem_ctrls1.perBankWrBursts::9           272703                       # Per bank write bursts
system.mem_ctrls1.perBankWrBursts::10          273859                       # Per bank write bursts
system.mem_ctrls1.perBankWrBursts::11          275301                       # Per bank write bursts
system.mem_ctrls1.perBankWrBursts::12          274159                       # Per bank write bursts
system.mem_ctrls1.perBankWrBursts::13          272947                       # Per bank write bursts
system.mem_ctrls1.perBankWrBursts::14          273296                       # Per bank write bursts
system.mem_ctrls1.perBankWrBursts::15          274965                       # Per bank write bursts
system.mem_ctrls1.numRdRetry                        0                       # Number of times read queue was full causing retry
system.mem_ctrls1.numWrRetry                        0                       # Number of times write queue was full causing retry
system.mem_ctrls1.totGap                 2567304417042                       # Total gap between requests
system.mem_ctrls1.readPktSize::0                    0                       # Read request sizes (log2)
system.mem_ctrls1.readPktSize::1                    0                       # Read request sizes (log2)
system.mem_ctrls1.readPktSize::2                    0                       # Read request sizes (log2)
system.mem_ctrls1.readPktSize::3                    0                       # Read request sizes (log2)
system.mem_ctrls1.readPktSize::4                    0                       # Read request sizes (log2)
system.mem_ctrls1.readPktSize::5                    0                       # Read request sizes (log2)
system.mem_ctrls1.readPktSize::6              8198312                       # Read request sizes (log2)
system.mem_ctrls1.writePktSize::0                   0                       # Write request sizes (log2)
system.mem_ctrls1.writePktSize::1                   0                       # Write request sizes (log2)
system.mem_ctrls1.writePktSize::2                   0                       # Write request sizes (log2)
system.mem_ctrls1.writePktSize::3                   0                       # Write request sizes (log2)
system.mem_ctrls1.writePktSize::4                   0                       # Write request sizes (log2)
system.mem_ctrls1.writePktSize::5                   0                       # Write request sizes (log2)
system.mem_ctrls1.writePktSize::6             4381807                       # Write request sizes (log2)
system.mem_ctrls1.rdQLenPdf::0                7736771                       # What read queue length does an incoming req see
system.mem_ctrls1.rdQLenPdf::1                 331970                       # What read queue length does an incoming req see
system.mem_ctrls1.rdQLenPdf::2                 110701                       # What read queue length does an incoming req see
system.mem_ctrls1.rdQLenPdf::3                  18863                       # What read queue length does an incoming req see
system.mem_ctrls1.rdQLenPdf::4                      0                       # What read queue length does an incoming req see
system.mem_ctrls1.rdQLenPdf::5                      0                       # What read queue length does an incoming req see
system.mem_ctrls1.rdQLenPdf::6                      0                       # What read queue length does an incoming req see
system.mem_ctrls1.rdQLenPdf::7                      0                       # What read queue length does an incoming req see
system.mem_ctrls1.rdQLenPdf::8                      0                       # What read queue length does an incoming req see
system.mem_ctrls1.rdQLenPdf::9                      0                       # What read queue length does an incoming req see
system.mem_ctrls1.rdQLenPdf::10                     0                       # What read queue length does an incoming req see
system.mem_ctrls1.rdQLenPdf::11                     0                       # What read queue length does an incoming req see
system.mem_ctrls1.rdQLenPdf::12                     0                       # What read queue length does an incoming req see
system.mem_ctrls1.rdQLenPdf::13                     0                       # What read queue length does an incoming req see
system.mem_ctrls1.rdQLenPdf::14                     0                       # What read queue length does an incoming req see
system.mem_ctrls1.rdQLenPdf::15                     0                       # What read queue length does an incoming req see
system.mem_ctrls1.rdQLenPdf::16                     0                       # What read queue length does an incoming req see
system.mem_ctrls1.rdQLenPdf::17                     0                       # What read queue length does an incoming req see
system.mem_ctrls1.rdQLenPdf::18                     0                       # What read queue length does an incoming req see
system.mem_ctrls1.rdQLenPdf::19                     0                       # What read queue length does an incoming req see
system.mem_ctrls1.rdQLenPdf::20                     0                       # What read queue length does an incoming req see
system.mem_ctrls1.rdQLenPdf::21                     0                       # What read queue length does an incoming req see
system.mem_ctrls1.rdQLenPdf::22                     0                       # What read queue length does an incoming req see
system.mem_ctrls1.rdQLenPdf::23                     0                       # What read queue length does an incoming req see
system.mem_ctrls1.rdQLenPdf::24                     0                       # What read queue length does an incoming req see
system.mem_ctrls1.rdQLenPdf::25                     0                       # What read queue length does an incoming req see
system.mem_ctrls1.rdQLenPdf::26                     0                       # What read queue length does an incoming req see
system.mem_ctrls1.rdQLenPdf::27                     0                       # What read queue length does an incoming req see
system.mem_ctrls1.rdQLenPdf::28                     0                       # What read queue length does an incoming req see
system.mem_ctrls1.rdQLenPdf::29                     0                       # What read queue length does an incoming req see
system.mem_ctrls1.rdQLenPdf::30                     0                       # What read queue length does an incoming req see
system.mem_ctrls1.rdQLenPdf::31                     0                       # What read queue length does an incoming req see
system.mem_ctrls1.wrQLenPdf::0                      2                       # What write queue length does an incoming req see
system.mem_ctrls1.wrQLenPdf::1                      2                       # What write queue length does an incoming req see
system.mem_ctrls1.wrQLenPdf::2                      2                       # What write queue length does an incoming req see
system.mem_ctrls1.wrQLenPdf::3                      2                       # What write queue length does an incoming req see
system.mem_ctrls1.wrQLenPdf::4                      2                       # What write queue length does an incoming req see
system.mem_ctrls1.wrQLenPdf::5                      2                       # What write queue length does an incoming req see
system.mem_ctrls1.wrQLenPdf::6                      2                       # What write queue length does an incoming req see
system.mem_ctrls1.wrQLenPdf::7                      2                       # What write queue length does an incoming req see
system.mem_ctrls1.wrQLenPdf::8                      2                       # What write queue length does an incoming req see
system.mem_ctrls1.wrQLenPdf::9                      2                       # What write queue length does an incoming req see
system.mem_ctrls1.wrQLenPdf::10                     2                       # What write queue length does an incoming req see
system.mem_ctrls1.wrQLenPdf::11                     2                       # What write queue length does an incoming req see
system.mem_ctrls1.wrQLenPdf::12                     2                       # What write queue length does an incoming req see
system.mem_ctrls1.wrQLenPdf::13                     2                       # What write queue length does an incoming req see
system.mem_ctrls1.wrQLenPdf::14                     2                       # What write queue length does an incoming req see
system.mem_ctrls1.wrQLenPdf::15                138185                       # What write queue length does an incoming req see
system.mem_ctrls1.wrQLenPdf::16                145133                       # What write queue length does an incoming req see
system.mem_ctrls1.wrQLenPdf::17                246013                       # What write queue length does an incoming req see
system.mem_ctrls1.wrQLenPdf::18                255326                       # What write queue length does an incoming req see
system.mem_ctrls1.wrQLenPdf::19                257084                       # What write queue length does an incoming req see
system.mem_ctrls1.wrQLenPdf::20                256939                       # What write queue length does an incoming req see
system.mem_ctrls1.wrQLenPdf::21                256803                       # What write queue length does an incoming req see
system.mem_ctrls1.wrQLenPdf::22                256792                       # What write queue length does an incoming req see
system.mem_ctrls1.wrQLenPdf::23                257063                       # What write queue length does an incoming req see
system.mem_ctrls1.wrQLenPdf::24                257011                       # What write queue length does an incoming req see
system.mem_ctrls1.wrQLenPdf::25                256855                       # What write queue length does an incoming req see
system.mem_ctrls1.wrQLenPdf::26                256668                       # What write queue length does an incoming req see
system.mem_ctrls1.wrQLenPdf::27                256670                       # What write queue length does an incoming req see
system.mem_ctrls1.wrQLenPdf::28                256739                       # What write queue length does an incoming req see
system.mem_ctrls1.wrQLenPdf::29                257183                       # What write queue length does an incoming req see
system.mem_ctrls1.wrQLenPdf::30                259397                       # What write queue length does an incoming req see
system.mem_ctrls1.wrQLenPdf::31                255949                       # What write queue length does an incoming req see
system.mem_ctrls1.wrQLenPdf::32                255603                       # What write queue length does an incoming req see
system.mem_ctrls1.wrQLenPdf::33                   294                       # What write queue length does an incoming req see
system.mem_ctrls1.wrQLenPdf::34                    55                       # What write queue length does an incoming req see
system.mem_ctrls1.wrQLenPdf::35                    14                       # What write queue length does an incoming req see
system.mem_ctrls1.wrQLenPdf::36                     1                       # What write queue length does an incoming req see
system.mem_ctrls1.wrQLenPdf::37                     0                       # What write queue length does an incoming req see
system.mem_ctrls1.wrQLenPdf::38                     0                       # What write queue length does an incoming req see
system.mem_ctrls1.wrQLenPdf::39                     0                       # What write queue length does an incoming req see
system.mem_ctrls1.wrQLenPdf::40                     0                       # What write queue length does an incoming req see
system.mem_ctrls1.wrQLenPdf::41                     0                       # What write queue length does an incoming req see
system.mem_ctrls1.wrQLenPdf::42                     0                       # What write queue length does an incoming req see
system.mem_ctrls1.wrQLenPdf::43                     0                       # What write queue length does an incoming req see
system.mem_ctrls1.wrQLenPdf::44                     0                       # What write queue length does an incoming req see
system.mem_ctrls1.wrQLenPdf::45                     0                       # What write queue length does an incoming req see
system.mem_ctrls1.wrQLenPdf::46                     0                       # What write queue length does an incoming req see
system.mem_ctrls1.wrQLenPdf::47                     0                       # What write queue length does an incoming req see
system.mem_ctrls1.wrQLenPdf::48                     0                       # What write queue length does an incoming req see
system.mem_ctrls1.wrQLenPdf::49                     0                       # What write queue length does an incoming req see
system.mem_ctrls1.wrQLenPdf::50                     0                       # What write queue length does an incoming req see
system.mem_ctrls1.wrQLenPdf::51                     0                       # What write queue length does an incoming req see
system.mem_ctrls1.wrQLenPdf::52                     0                       # What write queue length does an incoming req see
system.mem_ctrls1.wrQLenPdf::53                     0                       # What write queue length does an incoming req see
system.mem_ctrls1.wrQLenPdf::54                     0                       # What write queue length does an incoming req see
system.mem_ctrls1.wrQLenPdf::55                     0                       # What write queue length does an incoming req see
system.mem_ctrls1.wrQLenPdf::56                     0                       # What write queue length does an incoming req see
system.mem_ctrls1.wrQLenPdf::57                     0                       # What write queue length does an incoming req see
system.mem_ctrls1.wrQLenPdf::58                     0                       # What write queue length does an incoming req see
system.mem_ctrls1.wrQLenPdf::59                     0                       # What write queue length does an incoming req see
system.mem_ctrls1.wrQLenPdf::60                     0                       # What write queue length does an incoming req see
system.mem_ctrls1.wrQLenPdf::61                     0                       # What write queue length does an incoming req see
system.mem_ctrls1.wrQLenPdf::62                     0                       # What write queue length does an incoming req see
system.mem_ctrls1.wrQLenPdf::63                     0                       # What write queue length does an incoming req see
system.mem_ctrls1.bytesPerActivate::samples      8717862                       # Bytes accessed per row activation
system.mem_ctrls1.bytesPerActivate::mean    92.353462                       # Bytes accessed per row activation
system.mem_ctrls1.bytesPerActivate::gmean    82.171719                       # Bytes accessed per row activation
system.mem_ctrls1.bytesPerActivate::stdev    56.919626                       # Bytes accessed per row activation
system.mem_ctrls1.bytesPerActivate::0-127      6300397     72.27%     72.27% # Bytes accessed per row activation
system.mem_ctrls1.bytesPerActivate::128-255      2005827     23.01%     95.28% # Bytes accessed per row activation
system.mem_ctrls1.bytesPerActivate::256-383       378270      4.34%     99.62% # Bytes accessed per row activation
system.mem_ctrls1.bytesPerActivate::384-511        25756      0.30%     99.91% # Bytes accessed per row activation
system.mem_ctrls1.bytesPerActivate::512-639         4197      0.05%     99.96% # Bytes accessed per row activation
system.mem_ctrls1.bytesPerActivate::640-767         1291      0.01%     99.98% # Bytes accessed per row activation
system.mem_ctrls1.bytesPerActivate::768-895          633      0.01%     99.98% # Bytes accessed per row activation
system.mem_ctrls1.bytesPerActivate::896-1023          382      0.00%     99.99% # Bytes accessed per row activation
system.mem_ctrls1.bytesPerActivate::1024-1151         1109      0.01%    100.00% # Bytes accessed per row activation
system.mem_ctrls1.bytesPerActivate::total      8717862                       # Bytes accessed per row activation
system.mem_ctrls1.rdPerTurnAround::samples       255323                       # Reads before turning the bus around for writes
system.mem_ctrls1.rdPerTurnAround::mean     32.109512                       # Reads before turning the bus around for writes
system.mem_ctrls1.rdPerTurnAround::stdev    56.018131                       # Reads before turning the bus around for writes
system.mem_ctrls1.rdPerTurnAround::0-1023       255316    100.00%    100.00% # Reads before turning the bus around for writes
system.mem_ctrls1.rdPerTurnAround::1024-2047            6      0.00%    100.00% # Reads before turning the bus around for writes
system.mem_ctrls1.rdPerTurnAround::27648-28671            1      0.00%    100.00% # Reads before turning the bus around for writes
system.mem_ctrls1.rdPerTurnAround::total       255323                       # Reads before turning the bus around for writes
system.mem_ctrls1.wrPerTurnAround::samples       255323                       # Writes before turning the bus around for reads
system.mem_ctrls1.wrPerTurnAround::mean     17.161721                       # Writes before turning the bus around for reads
system.mem_ctrls1.wrPerTurnAround::gmean    17.128366                       # Writes before turning the bus around for reads
system.mem_ctrls1.wrPerTurnAround::stdev     1.069673                       # Writes before turning the bus around for reads
system.mem_ctrls1.wrPerTurnAround::16          112379     44.01%     44.01% # Writes before turning the bus around for reads
system.mem_ctrls1.wrPerTurnAround::17            3793      1.49%     45.50% # Writes before turning the bus around for reads
system.mem_ctrls1.wrPerTurnAround::18          126128     49.40%     94.90% # Writes before turning the bus around for reads
system.mem_ctrls1.wrPerTurnAround::19           11795      4.62%     99.52% # Writes before turning the bus around for reads
system.mem_ctrls1.wrPerTurnAround::20            1026      0.40%     99.92% # Writes before turning the bus around for reads
system.mem_ctrls1.wrPerTurnAround::21             155      0.06%     99.98% # Writes before turning the bus around for reads
system.mem_ctrls1.wrPerTurnAround::22              37      0.01%    100.00% # Writes before turning the bus around for reads
system.mem_ctrls1.wrPerTurnAround::23               6      0.00%    100.00% # Writes before turning the bus around for reads
system.mem_ctrls1.wrPerTurnAround::24               1      0.00%    100.00% # Writes before turning the bus around for reads
system.mem_ctrls1.wrPerTurnAround::25               1      0.00%    100.00% # Writes before turning the bus around for reads
system.mem_ctrls1.wrPerTurnAround::26               2      0.00%    100.00% # Writes before turning the bus around for reads
system.mem_ctrls1.wrPerTurnAround::total       255323                       # Writes before turning the bus around for reads
system.mem_ctrls1.totQLat                218408938815                       # Total ticks spent queuing
system.mem_ctrls1.totMemAccLat           372127157565                       # Total ticks spent from burst creation until serviced by the DRAM
system.mem_ctrls1.totBusLat               40991525000                       # Total ticks spent in databus transfers
system.mem_ctrls1.avgQLat                    26640.74                       # Average queueing delay per DRAM burst
system.mem_ctrls1.avgBusLat                   5000.00                       # Average bus latency per DRAM burst
system.mem_ctrls1.avgMemAccLat               45390.74                       # Average memory access latency per DRAM burst
system.mem_ctrls1.avgRdBW                      204.37                       # Average DRAM read bandwidth in MiByte/s
system.mem_ctrls1.avgWrBW                      109.23                       # Average achieved write bandwidth in MiByte/s
system.mem_ctrls1.avgRdBWSys                   204.37                       # Average system read bandwidth in MiByte/s
system.mem_ctrls1.avgWrBWSys                   109.23                       # Average system write bandwidth in MiByte/s
system.mem_ctrls1.peakBW                     12800.00                       # Theoretical peak bandwidth in MiByte/s
system.mem_ctrls1.busUtil                        2.45                       # Data bus utilization in percentage
system.mem_ctrls1.busUtilRead                    1.60                       # Data bus utilization in percentage for reads
system.mem_ctrls1.busUtilWrite                   0.85                       # Data bus utilization in percentage for writes
system.mem_ctrls1.avgRdQLen                      1.03                       # Average read queue length when enqueuing
system.mem_ctrls1.avgWrQLen                     24.82                       # Average write queue length when enqueuing
system.mem_ctrls1.readRowHits                 2972148                       # Number of row buffer hits during reads
system.mem_ctrls1.writeRowHits                 890068                       # Number of row buffer hits during writes
system.mem_ctrls1.readRowHitRate                36.25                       # Row buffer hit rate for reads
system.mem_ctrls1.writeRowHitRate               20.31                       # Row buffer hit rate for writes
system.mem_ctrls1.avgGap                    204076.32                       # Average gap between requests
system.mem_ctrls1.pageHitRate                   30.70                       # Row buffer hit rate, read and write combined
system.mem_ctrls1_0.actEnergy             31115141820                       # Energy for activate commands per rank (pJ)
system.mem_ctrls1_0.preEnergy             16538071110                       # Energy for precharge commands per rank (pJ)
system.mem_ctrls1_0.readEnergy            29273443080                       # Energy for read commands per rank (pJ)
system.mem_ctrls1_0.writeEnergy           11439645660                       # Energy for write commands per rank (pJ)
system.mem_ctrls1_0.refreshEnergy        202249750560.000031                       # Energy for refresh commands per rank (pJ)
system.mem_ctrls1_0.actBackEnergy        192455699460                       # Energy for active background per rank (pJ)
system.mem_ctrls1_0.preBackEnergy          5320018560                       # Energy for precharge background per rank (pJ)
system.mem_ctrls1_0.actPowerDownEnergy   853230945150                       # Energy for active power-down per rank (pJ)
system.mem_ctrls1_0.prePowerDownEnergy    82042158720                       # Energy for precharge power-down per rank (pJ)
system.mem_ctrls1_0.selfRefreshEnergy     14351579430                       # Energy for self refresh per rank (pJ)
system.mem_ctrls1_0.totalEnergy          1438042328340                       # Total energy per rank (pJ)
system.mem_ctrls1_0.averagePower           560.137003                       # Core power per rank (mW)
system.mem_ctrls1_0.totalIdleTime        2131337111984                       # Total Idle time Per DRAM Rank
system.mem_ctrls1_0.memoryStateTime::IDLE   3427579678                       # Time in different power states
system.mem_ctrls1_0.memoryStateTime::REF  85590802000                       # Time in different power states
system.mem_ctrls1_0.memoryStateTime::SREF  46568865922                       # Time in different power states
system.mem_ctrls1_0.memoryStateTime::PRE_PDN 213642389120                       # Time in different power states
system.mem_ctrls1_0.memoryStateTime::ACT 346949078430                       # Time in different power states
system.mem_ctrls1_0.memoryStateTime::ACT_PDN 1871125906021                       # Time in different power states
system.mem_ctrls1_1.actEnergy             31130457120                       # Energy for activate commands per rank (pJ)
system.mem_ctrls1_1.preEnergy             16546215180                       # Energy for precharge commands per rank (pJ)
system.mem_ctrls1_1.readEnergy            29262454620                       # Energy for read commands per rank (pJ)
system.mem_ctrls1_1.writeEnergy           11433256380                       # Energy for write commands per rank (pJ)
system.mem_ctrls1_1.refreshEnergy        202005123840.000031                       # Energy for refresh commands per rank (pJ)
system.mem_ctrls1_1.actBackEnergy        191685112470                       # Energy for active background per rank (pJ)
system.mem_ctrls1_1.preBackEnergy          5300888160                       # Energy for precharge background per rank (pJ)
system.mem_ctrls1_1.actPowerDownEnergy   854398381530                       # Energy for active power-down per rank (pJ)
system.mem_ctrls1_1.prePowerDownEnergy    81444828480                       # Energy for precharge power-down per rank (pJ)
system.mem_ctrls1_1.selfRefreshEnergy     14348517630                       # Energy for self refresh per rank (pJ)
system.mem_ctrls1_1.totalEnergy          1437580019160                       # Total energy per rank (pJ)
system.mem_ctrls1_1.averagePower           559.956931                       # Core power per rank (mW)
system.mem_ctrls1_1.totalIdleTime        2133086150530                       # Total Idle time Per DRAM Rank
system.mem_ctrls1_1.memoryStateTime::IDLE   3335593254                       # Time in different power states
system.mem_ctrls1_1.memoryStateTime::REF  85485462000                       # Time in different power states
system.mem_ctrls1_1.memoryStateTime::SREF  47306434186                       # Time in different power states
system.mem_ctrls1_1.memoryStateTime::PRE_PDN 212095616403                       # Time in different power states
system.mem_ctrls1_1.memoryStateTime::ACT 345397415387                       # Time in different power states
system.mem_ctrls1_1.memoryStateTime::ACT_PDN 1873684099941                       # Time in different power states
system.pwrStateResidencyTicks::UNDEFINED 146044292938245                       # Cumulative time (in ticks) in various power states
system.cpu.branchPred.lookups                       0                       # Number of BP lookups
system.cpu.branchPred.condPredicted                 0                       # Number of conditional branches predicted
system.cpu.branchPred.condIncorrect                 0                       # Number of conditional branches incorrect
system.cpu.branchPred.BTBLookups                    0                       # Number of BTB lookups
system.cpu.branchPred.BTBHits                       0                       # Number of BTB hits
system.cpu.branchPred.BTBCorrect                    0                       # Number of correct BTB predictions (this stat may not work properly.
system.cpu.branchPred.BTBHitPct                   nan                       # BTB Hit Percentage
system.cpu.branchPred.usedRAS                       0                       # Number of times the RAS was used to get a target.
system.cpu.branchPred.RASInCorrect                  0                       # Number of incorrect RAS predictions.
system.cpu.branchPred.indirectLookups               0                       # Number of indirect predictor lookups.
system.cpu.branchPred.indirectHits                  0                       # Number of indirect target hits.
system.cpu.branchPred.indirectMisses                0                       # Number of indirect misses.
system.cpu.branchPredindirectMispredicted            0                       # Number of mispredicted indirect branches.
system.cpu_voltage_domain.voltage                   1                       # Voltage in Volts
system.cpu_clk_domain.clock                       333                       # Clock period in ticks
system.cpu.dtb.fetch_hits                           0                       # ITB hits
system.cpu.dtb.fetch_misses                         0                       # ITB misses
system.cpu.dtb.fetch_acv                            0                       # ITB acv
system.cpu.dtb.fetch_accesses                       0                       # ITB accesses
system.cpu.dtb.read_hits                           13                       # DTB read hits
system.cpu.dtb.read_misses                          0                       # DTB read misses
system.cpu.dtb.read_acv                             0                       # DTB read access violations
system.cpu.dtb.read_accesses                       13                       # DTB read accesses
system.cpu.dtb.write_hits                           0                       # DTB write hits
system.cpu.dtb.write_misses                         0                       # DTB write misses
system.cpu.dtb.write_acv                            0                       # DTB write access violations
system.cpu.dtb.write_accesses                       0                       # DTB write accesses
system.cpu.dtb.data_hits                           13                       # DTB hits
system.cpu.dtb.data_misses                          0                       # DTB misses
system.cpu.dtb.data_acv                             0                       # DTB access violations
system.cpu.dtb.data_accesses                       13                       # DTB accesses
system.cpu.itb.fetch_hits                           4                       # ITB hits
system.cpu.itb.fetch_misses                         0                       # ITB misses
system.cpu.itb.fetch_acv                            0                       # ITB acv
system.cpu.itb.fetch_accesses                       4                       # ITB accesses
system.cpu.itb.read_hits                            0                       # DTB read hits
system.cpu.itb.read_misses                          0                       # DTB read misses
system.cpu.itb.read_acv                             0                       # DTB read access violations
system.cpu.itb.read_accesses                        0                       # DTB read accesses
system.cpu.itb.write_hits                           0                       # DTB write hits
system.cpu.itb.write_misses                         0                       # DTB write misses
system.cpu.itb.write_acv                            0                       # DTB write access violations
system.cpu.itb.write_accesses                       0                       # DTB write accesses
system.cpu.itb.data_hits                            0                       # DTB hits
system.cpu.itb.data_misses                          0                       # DTB misses
system.cpu.itb.data_acv                             0                       # DTB access violations
system.cpu.itb.data_accesses                        0                       # DTB accesses
system.cpu.workload.num_syscalls                    0                       # Number of system calls
system.cpu.pwrStateResidencyTicks::ON    2567304621171                       # Cumulative time (in ticks) in various power states
system.cpu.numCycles                              582                       # number of cpu cycles simulated
system.cpu.numWorkItemsStarted                      0                       # number of work items this cpu started
system.cpu.numWorkItemsCompleted                    0                       # number of work items this cpu completed
system.cpu.fetch.icacheStallCycles                 49                       # Number of cycles fetch is stalled on an Icache miss
system.cpu.fetch.Insts                             23                       # Number of instructions fetch has processed
system.cpu.fetch.Cycles                             3                       # Number of cycles fetch has run and was not squashing or blocked
system.cpu.fetch.SquashCycles                       3                       # Number of cycles fetch has spent squashing
system.cpu.fetch.PendingDrainCycles                 7                       # Number of cycles fetch has spent waiting on pipes to drain
system.cpu.fetch.CacheLines                         4                       # Number of cache lines fetched
system.cpu.fetch.IcacheSquashes                     2                       # Number of outstanding Icache misses that were squashed
system.cpu.fetch.rateDist::samples                 60                       # Number of instructions fetched each cycle (Total)
system.cpu.fetch.rateDist::mean              0.383333                       # Number of instructions fetched each cycle (Total)
[...]
system.switch_cpus_1.iq.fu_busy_rate         0.055248                       # FU busy rate (busy events/executed inst)
system.switch_cpus_1.iq.int_inst_queue_reads    596820036                       # Number of integer instruction queue reads
system.switch_cpus_1.iq.int_inst_queue_writes     79841865                       # Number of integer instruction queue writes
system.switch_cpus_1.iq.int_inst_queue_wakeup_accesses     72912782                       # Number of integer instruction queue wakeup accesses
system.switch_cpus_1.iq.fp_inst_queue_reads    313102592                       # Number of floating instruction queue reads
system.switch_cpus_1.iq.fp_inst_queue_writes    167481014                       # Number of floating instruction queue writes
system.switch_cpus_1.iq.fp_inst_queue_wakeup_accesses    142522351                       # Number of floating instruction queue wakeup accesses
system.switch_cpus_1.iq.int_alu_accesses     81268742                       # Number of integer alu accesses
system.switch_cpus_1.iq.fp_alu_accesses     160074938                       # Number of floating point alu accesses
system.switch_cpus_1.iew.lsq.thread0.forwLoads       563858                       # Number of loads that had data forwarded from stores
system.switch_cpus_1.iew.lsq.thread0.invAddrLoads            0                       # Number of loads ignored due to an invalid address
system.switch_cpus_1.iew.lsq.thread0.squashedLoads      9698855                       # Number of loads squashed
system.switch_cpus_1.iew.lsq.thread0.ignoredResponses           33                       # Number of memory responses ignored because the instruction is squashed
system.switch_cpus_1.iew.lsq.thread0.memOrderViolation          514                       # Number of memory ordering violations
system.switch_cpus_1.iew.lsq.thread0.squashedStores      1086749                       # Number of stores squashed
system.switch_cpus_1.iew.lsq.thread0.invAddrSwpfs            0                       # Number of software prefetches ignored due to an invalid address
system.switch_cpus_1.iew.lsq.thread0.blockedLoads            0                       # Number of blocked loads due to partial load-store forwarding
system.switch_cpus_1.iew.lsq.thread0.rescheduledLoads            0                       # Number of loads that were rescheduled
system.switch_cpus_1.iew.lsq.thread0.cacheBlocked     11879871                       # Number of times an access to memory failed due to the cache being blocked
system.switch_cpus_1.iew.iewIdleCycles              0                       # Number of cycles IEW is idle
system.switch_cpus_1.iew.iewSquashCycles       306913                       # Number of cycles IEW is squashing
system.switch_cpus_1.iew.iewBlockCycles      10210832                       # Number of cycles IEW is blocking
system.switch_cpus_1.iew.iewUnblockCycles    127760861                       # Number of cycles IEW is unblocking
system.switch_cpus_1.iew.iewDispatchedInsts    223847263                       # Number of instructions dispatched to IQ
system.switch_cpus_1.iew.iewDispSquashedInsts         1707                       # Number of squashed instructions skipped by dispatch
system.switch_cpus_1.iew.iewDispLoadInsts     93114463                       # Number of dispatched load instructions
system.switch_cpus_1.iew.iewDispStoreInsts     11679196                       # Number of dispatched store instructions
system.switch_cpus_1.iew.iewDispNonSpecInsts            0                       # Number of dispatched non-speculative instructions
system.switch_cpus_1.iew.iewIQFullEvents        35969                       # Number of times the IQ has become full, causing a stall
system.switch_cpus_1.iew.iewLSQFullEvents    127707622                       # Number of times the LSQ has become full, causing a stall
system.switch_cpus_1.iew.memOrderViolationEvents          514                       # Number of memory order violations
system.switch_cpus_1.iew.predictedTakenIncorrect         3860                       # Number of branches that were predicted taken incorrectly
system.switch_cpus_1.iew.predictedNotTakenIncorrect          457                       # Number of branches that were predicted not taken incorrectly
system.switch_cpus_1.iew.branchMispredicts         4317                       # Number of branch mispredicts detected at execute
system.switch_cpus_1.iew.iewExecutedInsts    228627283                       # Number of executed instructions
system.switch_cpus_1.iew.iewExecLoadInsts    104229724                       # Number of load instructions executed
system.switch_cpus_1.iew.iewExecSquashedInsts        80779                       # Number of squashed instructions skipped in execute
system.switch_cpus_1.iew.exec_swp                   0                       # number of swp insts executed
system.switch_cpus_1.iew.exec_nop              186047                       # number of nop insts executed
system.switch_cpus_1.iew.exec_refs          114948437                       # number of memory reference insts executed
system.switch_cpus_1.iew.exec_branches        1994183                       # Number of branches executed
system.switch_cpus_1.iew.exec_stores         10718713                       # Number of stores executed
system.switch_cpus_1.iew.exec_rate           0.520115                       # Inst execution rate
system.switch_cpus_1.iew.wb_sent            216508985                       # cumulative count of insts sent to commit
system.switch_cpus_1.iew.wb_count           215435133                       # cumulative count of insts written-back
system.switch_cpus_1.iew.wb_producers       143085981                       # num instructions producing a value
system.switch_cpus_1.iew.wb_consumers       149976432                       # num instructions consuming a value
system.switch_cpus_1.iew.wb_rate             0.490104                       # insts written-back per cycle
system.switch_cpus_1.iew.wb_fanout           0.954056                       # average fanout of values written-back
system.switch_cpus_1.commit.commitSquashedInsts     22570728                       # The number of squashed insts skipped by commit
system.switch_cpus_1.commit.branchMispredicts         4269                       # The number of times a branch was mispredicted
system.switch_cpus_1.commit.committed_per_cycle::samples    436570665                       # Number of insts commited each cycle
system.switch_cpus_1.commit.committed_per_cycle::mean     0.458541                       # Number of insts commited each cycle
system.switch_cpus_1.commit.committed_per_cycle::stdev     1.687989                       # Number of insts commited each cycle
system.switch_cpus_1.commit.committed_per_cycle::underflows            0      0.00%      0.00% # Number of insts commited each cycle
system.switch_cpus_1.commit.committed_per_cycle::0    393450580     90.12%     90.12% # Number of insts commited each cycle
system.switch_cpus_1.commit.committed_per_cycle::1     12508714      2.87%     92.99% # Number of insts commited each cycle
system.switch_cpus_1.commit.committed_per_cycle::2      4300388      0.99%     93.97% # Number of insts commited each cycle
system.switch_cpus_1.commit.committed_per_cycle::3      2667254      0.61%     94.58% # Number of insts commited each cycle
system.switch_cpus_1.commit.committed_per_cycle::4      2249796      0.52%     95.10% # Number of insts commited each cycle
system.switch_cpus_1.commit.committed_per_cycle::5      1602443      0.37%     95.47% # Number of insts commited each cycle
system.switch_cpus_1.commit.committed_per_cycle::6      1661743      0.38%     95.85% # Number of insts commited each cycle
system.switch_cpus_1.commit.committed_per_cycle::7       945570      0.22%     96.06% # Number of insts commited each cycle
system.switch_cpus_1.commit.committed_per_cycle::8     17184177      3.94%    100.00% # Number of insts commited each cycle
system.switch_cpus_1.commit.committed_per_cycle::overflows            0      0.00%    100.00% # Number of insts commited each cycle
system.switch_cpus_1.commit.committed_per_cycle::min_value            0                       # Number of insts commited each cycle
system.switch_cpus_1.commit.committed_per_cycle::max_value            8                       # Number of insts commited each cycle
system.switch_cpus_1.commit.committed_per_cycle::total    436570665                       # Number of insts commited each cycle
system.switch_cpus_1.commit.committedInsts    200185515                       # Number of instructions committed
system.switch_cpus_1.commit.committedOps    200185515                       # Number of ops (including micro ops) committed
system.switch_cpus_1.commit.swp_count               0                       # Number of s/w prefetches committed
system.switch_cpus_1.commit.refs             94008030                       # Number of memory references committed
system.switch_cpus_1.commit.loads            83415586                       # Number of loads committed
system.switch_cpus_1.commit.membars                 0                       # Number of memory barriers committed
system.switch_cpus_1.commit.branches          1780705                       # Number of branches committed
system.switch_cpus_1.commit.fp_insts        133556284                       # Number of committed floating point instructions.
system.switch_cpus_1.commit.int_insts       133992906                       # Number of committed integer instructions.
system.switch_cpus_1.commit.function_calls            0                       # Number of function calls committed.
system.switch_cpus_1.commit.op_class_0::No_OpClass       185513      0.09%      0.09% # Class of committed instruction
system.switch_cpus_1.commit.op_class_0::IntAlu     39964775     19.96%     20.06% # Class of committed instruction
system.switch_cpus_1.commit.op_class_0::IntMult        96303      0.05%     20.10% # Class of committed instruction
system.switch_cpus_1.commit.op_class_0::IntDiv            0      0.00%     20.10% # Class of committed instruction
system.switch_cpus_1.commit.op_class_0::FloatAdd     26372358     13.17%     33.28% # Class of committed instruction
system.switch_cpus_1.commit.op_class_0::FloatCmp            0      0.00%     33.28% # Class of committed instruction
system.switch_cpus_1.commit.op_class_0::FloatCvt            0      0.00%     33.28% # Class of committed instruction
system.switch_cpus_1.commit.op_class_0::FloatMult     39558536     19.76%     53.04% # Class of committed instruction
system.switch_cpus_1.commit.op_class_0::FloatMultAcc            0      0.00%     53.04% # Class of committed instruction
system.switch_cpus_1.commit.op_class_0::FloatDiv            0      0.00%     53.04% # Class of committed instruction
system.switch_cpus_1.commit.op_class_0::FloatMisc            0      0.00%     53.04% # Class of committed instruction
system.switch_cpus_1.commit.op_class_0::FloatSqrt            0      0.00%     53.04% # Class of committed instruction
system.switch_cpus_1.commit.op_class_0::SimdAdd            0      0.00%     53.04% # Class of committed instruction
system.switch_cpus_1.commit.op_class_0::SimdAddAcc            0      0.00%     53.04% # Class of committed instruction
system.switch_cpus_1.commit.op_class_0::SimdAlu            0      0.00%     53.04% # Class of committed instruction
system.switch_cpus_1.commit.op_class_0::SimdCmp            0      0.00%     53.04% # Class of committed instruction
system.switch_cpus_1.commit.op_class_0::SimdCvt            0      0.00%     53.04% # Class of committed instruction
system.switch_cpus_1.commit.op_class_0::SimdMisc            0      0.00%     53.04% # Class of committed instruction
system.switch_cpus_1.commit.op_class_0::SimdMult            0      0.00%     53.04% # Class of committed instruction
system.switch_cpus_1.commit.op_class_0::SimdMultAcc            0      0.00%     53.04% # Class of committed instruction
system.switch_cpus_1.commit.op_class_0::SimdShift            0      0.00%     53.04% # Class of committed instruction
system.switch_cpus_1.commit.op_class_0::SimdShiftAcc            0      0.00%     53.04% # Class of committed instruction
system.switch_cpus_1.commit.op_class_0::SimdSqrt            0      0.00%     53.04% # Class of committed instruction
system.switch_cpus_1.commit.op_class_0::SimdFloatAdd            0      0.00%     53.04% # Class of committed instruction
system.switch_cpus_1.commit.op_class_0::SimdFloatAlu            0      0.00%     53.04% # Class of committed instruction
system.switch_cpus_1.commit.op_class_0::SimdFloatCmp            0      0.00%     53.04% # Class of committed instruction
system.switch_cpus_1.commit.op_class_0::SimdFloatCvt            0      0.00%     53.04% # Class of committed instruction
system.switch_cpus_1.commit.op_class_0::SimdFloatDiv            0      0.00%     53.04% # Class of committed instruction
system.switch_cpus_1.commit.op_class_0::SimdFloatMisc            0      0.00%     53.04% # Class of committed instruction
system.switch_cpus_1.commit.op_class_0::SimdFloatMult            0      0.00%     53.04% # Class of committed instruction
system.switch_cpus_1.commit.op_class_0::SimdFloatMultAcc            0      0.00%     53.04% # Class of committed instruction
system.switch_cpus_1.commit.op_class_0::SimdFloatSqrt            0      0.00%     53.04% # Class of committed instruction
system.switch_cpus_1.commit.op_class_0::MemRead     24580982     12.28%     65.32% # Class of committed instruction
system.switch_cpus_1.commit.op_class_0::MemWrite      1801658      0.90%     66.22% # Class of committed instruction
system.switch_cpus_1.commit.op_class_0::FloatMemRead     58834604     29.39%     95.61% # Class of committed instruction
system.switch_cpus_1.commit.op_class_0::FloatMemWrite      8790786      4.39%    100.00% # Class of committed instruction
system.switch_cpus_1.commit.op_class_0::IprAccess            0      0.00%    100.00% # Class of committed instruction
system.switch_cpus_1.commit.op_class_0::InstPrefetch            0      0.00%    100.00% # Class of committed instruction
system.switch_cpus_1.commit.op_class_0::total    200185515                       # Class of committed instruction
system.switch_cpus_1.commit.bw_lim_events     17184177                       # number cycles where commit BW limit reached
system.switch_cpus_1.rob.rob_reads          638213858                       # The number of ROB reads
system.switch_cpus_1.rob.rob_writes         448471314                       # The number of ROB writes
system.switch_cpus_1.timesIdled                   387                       # Number of times that the entire CPU went into an idle state and unscheduled itself
system.switch_cpus_1.idleCycles                 41185                       # Total number of cycles that the CPU has spent unscheduled due to idling
system.switch_cpus_1.committedInsts         200000002                       # Number of Instructions Simulated
system.switch_cpus_1.committedOps           200000002                       # Number of Ops (including micro ops) Simulated
system.switch_cpus_1.cpi                     2.197853                       # CPI: Cycles Per Instruction
system.switch_cpus_1.cpi_total               2.197853                       # CPI: Total CPI of All Threads
system.switch_cpus_1.ipc                     0.454989                       # IPC: Instructions Per Cycle
system.switch_cpus_1.ipc_total               0.454989                       # IPC: Total IPC of All Threads
system.switch_cpus_1.int_regfile_reads      181518677                       # number of integer regfile reads
system.switch_cpus_1.int_regfile_writes      69114845                       # number of integer regfile writes
system.switch_cpus_1.fp_regfile_reads       147027566                       # number of floating regfile reads
system.switch_cpus_1.fp_regfile_writes      133620100                       # number of floating regfile writes
system.tol3bus.snoop_filter.tot_requests     39183878                       # Total number of requests made to the snoop filter.
system.tol3bus.snoop_filter.hit_single_requests     19589609                       # Number of requests hitting in the snoop filter with a single holder of the requested data.
system.tol3bus.snoop_filter.hit_multi_requests            0                       # Number of requests hitting in the snoop filter with multiple (>1) holders of the requested data.
system.tol3bus.snoop_filter.tot_snoops           4178                       # Total number of snoops made to the snoop filter.
system.tol3bus.snoop_filter.hit_single_snoops         4178                       # Number of snoops hitting in the snoop filter with a single holder of the requested data.
system.tol3bus.snoop_filter.hit_multi_snoops            0                       # Number of snoops hitting in the snoop filter with multiple (>1) holders of the requested data.
system.tol3bus.pwrStateResidencyTicks::UNDEFINED 146044292938245                       # Cumulative time (in ticks) in various power states
system.tol3bus.trans_dist::ReadResp          19456418                       # Transaction distribution
system.tol3bus.trans_dist::WritebackDirty     17799146                       # Transaction distribution
system.tol3bus.trans_dist::CleanEvict        18122880                       # Transaction distribution
system.tol3bus.trans_dist::UpgradeReq               5                       # Transaction distribution
system.tol3bus.trans_dist::UpgradeResp              5                       # Transaction distribution
system.tol3bus.trans_dist::ReadExReq           137851                       # Transaction distribution
system.tol3bus.trans_dist::ReadExResp          137851                       # Transaction distribution
system.tol3bus.trans_dist::ReadSharedReq     19456418                       # Transaction distribution
system.tol3bus.pkt_count_system.cpu.l2.mem_side::system.l3.cpu_side     58778152                       # Packet count per connected master and slave (bytes)
system.tol3bus.pkt_size_system.cpu.l2.mem_side::system.l3.cpu_side   1832310272                       # Cumulative packet size per connected master and slave (bytes)
system.tol3bus.snoops                        16332422                       # Total snoops (count)
system.tol3bus.snoopTraffic                 560868288                       # Total snoop traffic (bytes)
system.tol3bus.snoop_fanout::samples         35926696                       # Request fanout histogram
system.tol3bus.snoop_fanout::mean            0.000116                       # Request fanout histogram
system.tol3bus.snoop_fanout::stdev           0.010783                       # Request fanout histogram
system.tol3bus.snoop_fanout::underflows             0      0.00%      0.00% # Request fanout histogram
system.tol3bus.snoop_fanout::0               35922518     99.99%     99.99% # Request fanout histogram
system.tol3bus.snoop_fanout::1                   4178      0.01%    100.00% # Request fanout histogram
system.tol3bus.snoop_fanout::overflows              0      0.00%    100.00% # Request fanout histogram
system.tol3bus.snoop_fanout::min_value              0                       # Request fanout histogram
system.tol3bus.snoop_fanout::max_value              1                       # Request fanout histogram
system.tol3bus.snoop_fanout::total           35926696                       # Request fanout histogram
system.tol3bus.reqLayer0.occupancy        16057079181                       # Layer occupancy (ticks)
system.tol3bus.reqLayer0.utilization              0.6                       # Layer utilization (%)
system.tol3bus.respLayer0.occupancy       13049784819                       # Layer occupancy (ticks)
system.tol3bus.respLayer0.utilization             0.5                       # Layer utilization (%)

---------- End Simulation Statistics   ----------
