
---------- Begin Simulation Statistics ----------
sim_seconds                                  1.201155                       # Number of seconds simulated
sim_ticks                                1201155349293                       # Number of ticks simulated
final_tick                               110962289557080                       # Number of ticks from beginning of simulation (restored from checkpoints and never reset)
sim_freq                                 1000000000000                       # Frequency of simulated ticks
host_inst_rate                                 496501                       # Simulator instruction rate (inst/s)
host_op_rate                                   496501                       # Simulator op (including micro ops) rate (op/s)
host_tick_rate                              397583203                       # Simulator tick rate (ticks/s)
host_mem_usage                                2381952                       # Number of bytes of host memory used
host_seconds                                  3021.14                       # Real time elapsed on the host
sim_insts                                  1500000010                       # Number of instructions simulated
sim_ops                                    1500000010                       # Number of ops (including micro ops) simulated
system.voltage_domain.voltage                       1                       # Voltage in Volts
system.clk_domain.clock                          1000                       # Clock period in ticks
system.mem_ctrls0.pwrStateResidencyTicks::UNDEFINED 110962289557080                       # Cumulative time (in ticks) in various power states
system.mem_ctrls0.bytes_read::cpu.inst             64                       # Number of bytes read from this memory
system.mem_ctrls0.bytes_read::switch_cpus.inst         3968                       # Number of bytes read from this memory
system.mem_ctrls0.bytes_read::switch_cpus.data      1020416                       # Number of bytes read from this memory
system.mem_ctrls0.bytes_read::switch_cpus_1.inst          768                       # Number of bytes read from this memory
system.mem_ctrls0.bytes_read::switch_cpus_1.data        28288                       # Number of bytes read from this memory
system.mem_ctrls0.bytes_read::total           1053504                       # Number of bytes read from this memory
system.mem_ctrls0.bytes_inst_read::cpu.inst           64                       # Number of instructions bytes read from this memory
system.mem_ctrls0.bytes_inst_read::switch_cpus.inst         3968                       # Number of instructions bytes read from this memory
system.mem_ctrls0.bytes_inst_read::switch_cpus_1.inst          768                       # Number of instructions bytes read from this memory
system.mem_ctrls0.bytes_inst_read::total         4800                       # Number of instructions bytes read from this memory
system.mem_ctrls0.num_reads::cpu.inst               1                       # Number of read requests responded to by this memory
system.mem_ctrls0.num_reads::switch_cpus.inst           62                       # Number of read requests responded to by this memory
system.mem_ctrls0.num_reads::switch_cpus.data        15944                       # Number of read requests responded to by this memory
system.mem_ctrls0.num_reads::switch_cpus_1.inst           12                       # Number of read requests responded to by this memory
system.mem_ctrls0.num_reads::switch_cpus_1.data          442                       # Number of read requests responded to by this memory
system.mem_ctrls0.num_reads::total              16461                       # Number of read requests responded to by this memory
system.mem_ctrls0.bw_read::cpu.inst                53                       # Total read bandwidth from this memory (bytes/s)
system.mem_ctrls0.bw_read::switch_cpus.inst         3303                       # Total read bandwidth from this memory (bytes/s)
system.mem_ctrls0.bw_read::switch_cpus.data       849529                       # Total read bandwidth from this memory (bytes/s)
system.mem_ctrls0.bw_read::switch_cpus_1.inst          639                       # Total read bandwidth from this memory (bytes/s)
system.mem_ctrls0.bw_read::switch_cpus_1.data        23551                       # Total read bandwidth from this memory (bytes/s)
system.mem_ctrls0.bw_read::total               877076                       # Total read bandwidth from this memory (bytes/s)
system.mem_ctrls0.bw_inst_read::cpu.inst           53                       # Instruction read bandwidth from this memory (bytes/s)
system.mem_ctrls0.bw_inst_read::switch_cpus.inst         3303                       # Instruction read bandwidth from this memory (bytes/s)
system.mem_ctrls0.bw_inst_read::switch_cpus_1.inst          639                       # Instruction read bandwidth from this memory (bytes/s)
system.mem_ctrls0.bw_inst_read::total            3996                       # Instruction read bandwidth from this memory (bytes/s)
system.mem_ctrls0.bw_total::cpu.inst               53                       # Total bandwidth to/from this memory (bytes/s)
system.mem_ctrls0.bw_total::switch_cpus.inst         3303                       # Total bandwidth to/from this memory (bytes/s)
system.mem_ctrls0.bw_total::switch_cpus.data       849529                       # Total bandwidth to/from this memory (bytes/s)
system.mem_ctrls0.bw_total::switch_cpus_1.inst          639                       # Total bandwidth to/from this memory (bytes/s)
system.mem_ctrls0.bw_total::switch_cpus_1.data        23551                       # Total bandwidth to/from this memory (bytes/s)
system.mem_ctrls0.bw_total::total              877076                       # Total bandwidth to/from this memory (bytes/s)
system.mem_ctrls0.readReqs                      16461                       # Number of read requests accepted
system.mem_ctrls0.writeReqs                         0                       # Number of write requests accepted
system.mem_ctrls0.readBursts                    16461                       # Number of DRAM read bursts, including those serviced by the write queue
system.mem_ctrls0.writeBursts                       0                       # Number of DRAM write bursts, including those merged in the write queue
system.mem_ctrls0.bytesReadDRAM               1053504                       # Total number of bytes read from DRAM
system.mem_ctrls0.bytesReadWrQ                      0                       # Total number of bytes read from write queue
system.mem_ctrls0.bytesWritten                      0                       # Total number of bytes written to DRAM
system.mem_ctrls0.bytesReadSys                1053504                       # Total read bytes from the system interface side
system.mem_ctrls0.bytesWrittenSys                   0                       # Total written bytes from the system interface side
system.mem_ctrls0.servicedByWrQ                     0                       # Number of DRAM read bursts serviced by the write queue
system.mem_ctrls0.mergedWrBursts                    0                       # Number of DRAM write bursts merged with an existing one
system.mem_ctrls0.neitherReadNorWriteReqs            0                       # Number of requests that are neither read nor write
system.mem_ctrls0.perBankRdBursts::0              969                       # Per bank write bursts
system.mem_ctrls0.perBankRdBursts::1             1030                       # Per bank write bursts
system.mem_ctrls0.perBankRdBursts::2             1004                       # Per bank write bursts
system.mem_ctrls0.perBankRdBursts::3             1049                       # Per bank write bursts
system.mem_ctrls0.perBankRdBursts::4             1010                       # Per bank write bursts
system.mem_ctrls0.perBankRdBursts::5             1126                       # Per bank write bursts
system.mem_ctrls0.perBankRdBursts::6             1127                       # Per bank write bursts
system.mem_ctrls0.perBankRdBursts::7             1042                       # Per bank write bursts
system.mem_ctrls0.perBankRdBursts::8             1100                       # Per bank write bursts
system.mem_ctrls0.perBankRdBursts::9             1032                       # Per bank write bursts
system.mem_ctrls0.perBankRdBursts::10            1085                       # Per bank write bursts
system.mem_ctrls0.perBankRdBursts::11            1055                       # Per bank write bursts
system.mem_ctrls0.perBankRdBursts::12             876                       # Per bank write bursts
system.mem_ctrls0.perBankRdBursts::13             924                       # Per bank write bursts
system.mem_ctrls0.perBankRdBursts::14            1005                       # Per bank write bursts
system.mem_ctrls0.perBankRdBursts::15            1027                       # Per bank write bursts
system.mem_ctrls0.perBankWrBursts::0                0                       # Per bank write bursts
system.mem_ctrls0.perBankWrBursts::1                0                       # Per bank write bursts
system.mem_ctrls0.perBankWrBursts::2                0                       # Per bank write bursts
system.mem_ctrls0.perBankWrBursts::3                0                       # Per bank write bursts
system.mem_ctrls0.perBankWrBursts::4                0                       # Per bank write bursts
system.mem_ctrls0.perBankWrBursts::5                0                       # Per bank write bursts
system.mem_ctrls0.perBankWrBursts::6                0                       # Per bank write bursts
system.mem_ctrls0.perBankWrBursts::7                0                       # Per bank write bursts
system.mem_ctrls0.perBankWrBursts::8                0                       # Per bank write bursts
system.mem_ctrls0.perBankWrBursts::9                0                       # Per bank write bursts
system.mem_ctrls0.perBankWrBursts::10               0                       # Per bank write bursts
system.mem_ctrls0.perBankWrBursts::11               0                       # Per bank write bursts
system.mem_ctrls0.perBankWrBursts::12               0                       # Per bank write bursts
system.mem_ctrls0.perBankWrBursts::13               0                       # Per bank write bursts
system.mem_ctrls0.perBankWrBursts::14               0                       # Per bank write bursts
system.mem_ctrls0.perBankWrBursts::15               0                       # Per bank write bursts
system.mem_ctrls0.numRdRetry                        0                       # Number of times read queue was full causing retry
system.mem_ctrls0.numWrRetry                        0                       # Number of times write queue was full causing retry
system.mem_ctrls0.totGap                 1200652537941                       # Total gap between requests
system.mem_ctrls0.readPktSize::0                    0                       # Read request sizes (log2)
system.mem_ctrls0.readPktSize::1                    0                       # Read request sizes (log2)
system.mem_ctrls0.readPktSize::2                    0                       # Read request sizes (log2)
system.mem_ctrls0.readPktSize::3                    0                       # Read request sizes (log2)
system.mem_ctrls0.readPktSize::4                    0                       # Read request sizes (log2)
system.mem_ctrls0.readPktSize::5                    0                       # Read request sizes (log2)
system.mem_ctrls0.readPktSize::6                16461                       # Read request sizes (log2)
system.mem_ctrls0.writePktSize::0                   0                       # Write request sizes (log2)
system.mem_ctrls0.writePktSize::1                   0                       # Write request sizes (log2)
system.mem_ctrls0.writePktSize::2                   0                       # Write request sizes (log2)
system.mem_ctrls0.writePktSize::3                   0                       # Write request sizes (log2)
system.mem_ctrls0.writePktSize::4                   0                       # Write request sizes (log2)
system.mem_ctrls0.writePktSize::5                   0                       # Write request sizes (log2)
system.mem_ctrls0.writePktSize::6                   0                       # Write request sizes (log2)
system.mem_ctrls0.rdQLenPdf::0                  16433                       # What read queue length does an incoming req see
system.mem_ctrls0.rdQLenPdf::1                     27                       # What read queue length does an incoming req see
system.mem_ctrls0.rdQLenPdf::2                      1                       # What read queue length does an incoming req see
system.mem_ctrls0.rdQLenPdf::3                      0                       # What read queue length does an incoming req see
system.mem_ctrls0.rdQLenPdf::4                      0                       # What read queue length does an incoming req see
system.mem_ctrls0.rdQLenPdf::5                      0                       # What read queue length does an incoming req see
system.mem_ctrls0.rdQLenPdf::6                      0                       # What read queue length does an incoming req see
system.mem_ctrls0.rdQLenPdf::7                      0                       # What read queue length does an incoming req see
system.mem_ctrls0.rdQLenPdf::8                      0                       # What read queue length does an incoming req see
system.mem_ctrls0.rdQLenPdf::9                      0                       # What read queue length does an incoming req see
system.mem_ctrls0.rdQLenPdf::10                     0                       # What read queue length does an incoming req see
system.mem_ctrls0.rdQLenPdf::11                     0                       # What read queue length does an incoming req see
system.mem_ctrls0.rdQLenPdf::12                     0                       # What read queue length does an incoming req see
system.mem_ctrls0.rdQLenPdf::13                     0                       # What read queue length does an incoming req see
system.mem_ctrls0.rdQLenPdf::14                     0                       # What read queue length does an incoming req see
system.mem_ctrls0.rdQLenPdf::15                     0                       # What read queue length does an incoming req see
system.mem_ctrls0.rdQLenPdf::16                     0                       # What read queue length does an incoming req see
system.mem_ctrls0.rdQLenPdf::17                     0                       # What read queue length does an incoming req see
system.mem_ctrls0.rdQLenPdf::18                     0                       # What read queue length does an incoming req see
system.mem_ctrls0.rdQLenPdf::19                     0                       # What read queue length does an incoming req see
system.mem_ctrls0.rdQLenPdf::20                     0                       # What read queue length does an incoming req see
system.mem_ctrls0.rdQLenPdf::21                     0                       # What read queue length does an incoming req see
system.mem_ctrls0.rdQLenPdf::22                     0                       # What read queue length does an incoming req see
system.mem_ctrls0.rdQLenPdf::23                     0                       # What read queue length does an incoming req see
system.mem_ctrls0.rdQLenPdf::24                     0                       # What read queue length does an incoming req see
system.mem_ctrls0.rdQLenPdf::25                     0                       # What read queue length does an incoming req see
system.mem_ctrls0.rdQLenPdf::26                     0                       # What read queue length does an incoming req see
system.mem_ctrls0.rdQLenPdf::27                     0                       # What read queue length does an incoming req see
system.mem_ctrls0.rdQLenPdf::28                     0                       # What read queue length does an incoming req see
system.mem_ctrls0.rdQLenPdf::29                     0                       # What read queue length does an incoming req see
system.mem_ctrls0.rdQLenPdf::30                     0                       # What read queue length does an incoming req see
system.mem_ctrls0.rdQLenPdf::31                     0                       # What read queue length does an incoming req see
system.mem_ctrls0.wrQLenPdf::0                      0                       # What write queue length does an incoming req see
system.mem_ctrls0.wrQLenPdf::1                      0                       # What write queue length does an incoming req see
system.mem_ctrls0.wrQLenPdf::2                      0                       # What write queue length does an incoming req see
system.mem_ctrls0.wrQLenPdf::3                      0                       # What write queue length does an incoming req see
system.mem_ctrls0.wrQLenPdf::4                      0                       # What write queue length does an incoming req see
system.mem_ctrls0.wrQLenPdf::5                      0                       # What write queue length does an incoming req see
system.mem_ctrls0.wrQLenPdf::6                      0                       # What write queue length does an incoming req see
system.mem_ctrls0.wrQLenPdf::7                      0                       # What write queue length does an incoming req see
system.mem_ctrls0.wrQLenPdf::8                      0                       # What write queue length does an incoming req see
system.mem_ctrls0.wrQLenPdf::9                      0                       # What write queue length does an incoming req see
system.mem_ctrls0.wrQLenPdf::10                     0                       # What write queue length does an incoming req see
system.mem_ctrls0.wrQLenPdf::11                     0                       # What write queue length does an incoming req see
system.mem_ctrls0.wrQLenPdf::12                     0                       # What write queue length does an incoming req see
system.mem_ctrls0.wrQLenPdf::13                     0                       # What write queue length does an incoming req see
system.mem_ctrls0.wrQLenPdf::14                     0                       # What write queue length does an incoming req see
system.mem_ctrls0.wrQLenPdf::15                     0                       # What write queue length does an incoming req see
system.mem_ctrls0.wrQLenPdf::16                     0                       # What write queue length does an incoming req see
system.mem_ctrls0.wrQLenPdf::17                     0                       # What write queue length does an incoming req see
system.mem_ctrls0.wrQLenPdf::18                     0                       # What write queue length does an incoming req see
system.mem_ctrls0.wrQLenPdf::19                     0                       # What write queue length does an incoming req see
system.mem_ctrls0.wrQLenPdf::20                     0                       # What write queue length does an incoming req see
system.mem_ctrls0.wrQLenPdf::21                     0                       # What write queue length does an incoming req see
system.mem_ctrls0.wrQLenPdf::22                     0                       # What write queue length does an incoming req see
system.mem_ctrls0.wrQLenPdf::23                     0                       # What write queue length does an incoming req see
system.mem_ctrls0.wrQLenPdf::24                     0                       # What write queue length does an incoming req see
system.mem_ctrls0.wrQLenPdf::25                     0                       # What write queue length does an incoming req see
system.mem_ctrls0.wrQLenPdf::26                     0                       # What write queue length does an incoming req see
system.mem_ctrls0.wrQLenPdf::27                     0                       # What write queue length does an incoming req see
system.mem_ctrls0.wrQLenPdf::28                     0                       # What write queue length does an incoming req see
system.mem_ctrls0.wrQLenPdf::29                     0                       # What write queue length does an incoming req see
system.mem_ctrls0.wrQLenPdf::30                     0                       # What write queue length does an incoming req see
system.mem_ctrls0.wrQLenPdf::31                     0                       # What write queue length does an incoming req see
system.mem_ctrls0.wrQLenPdf::32                     0                       # What write queue length does an incoming req see
system.mem_ctrls0.wrQLenPdf::33                     0                       # What write queue length does an incoming req see
system.mem_ctrls0.wrQLenPdf::34                     0                       # What write queue length does an incoming req see
system.mem_ctrls0.wrQLenPdf::35                     0                       # What write queue length does an incoming req see
system.mem_ctrls0.wrQLenPdf::36                     0                       # What write queue length does an incoming req see
system.mem_ctrls0.wrQLenPdf::37                     0                       # What write queue length does an incoming req see
system.mem_ctrls0.wrQLenPdf::38                     0                       # What write queue length does an incoming req see
system.mem_ctrls0.wrQLenPdf::39                     0                       # What write queue length does an incoming req see
system.mem_ctrls0.wrQLenPdf::40                     0                       # What write queue length does an incoming req see
system.mem_ctrls0.wrQLenPdf::41                     0                       # What write queue length does an incoming req see
system.mem_ctrls0.wrQLenPdf::42                     0                       # What write queue length does an incoming req see
system.mem_ctrls0.wrQLenPdf::43                     0                       # What write queue length does an incoming req see
system.mem_ctrls0.wrQLenPdf::44                     0                       # What write queue length does an incoming req see
system.mem_ctrls0.wrQLenPdf::45                     0                       # What write queue length does an incoming req see
system.mem_ctrls0.wrQLenPdf::46                     0                       # What write queue length does an incoming req see
system.mem_ctrls0.wrQLenPdf::47                     0                       # What write queue length does an incoming req see
system.mem_ctrls0.wrQLenPdf::48                     0                       # What write queue length does an incoming req see
system.mem_ctrls0.wrQLenPdf::49                     0                       # What write queue length does an incoming req see
system.mem_ctrls0.wrQLenPdf::50                     0                       # What write queue length does an incoming req see
system.mem_ctrls0.wrQLenPdf::51                     0                       # What write queue length does an incoming req see
system.mem_ctrls0.wrQLenPdf::52                     0                       # What write queue length does an incoming req see
system.mem_ctrls0.wrQLenPdf::53                     0                       # What write queue length does an incoming req see
system.mem_ctrls0.wrQLenPdf::54                     0                       # What write queue length does an incoming req see
system.mem_ctrls0.wrQLenPdf::55                     0                       # What write queue length does an incoming req see
system.mem_ctrls0.wrQLenPdf::56                     0                       # What write queue length does an incoming req see
system.mem_ctrls0.wrQLenPdf::57                     0                       # What write queue length does an incoming req see
system.mem_ctrls0.wrQLenPdf::58                     0                       # What write queue length does an incoming req see
system.mem_ctrls0.wrQLenPdf::59                     0                       # What write queue length does an incoming req see
system.mem_ctrls0.wrQLenPdf::60                     0                       # What write queue length does an incoming req see
system.mem_ctrls0.wrQLenPdf::61                     0                       # What write queue length does an incoming req see
system.mem_ctrls0.wrQLenPdf::62                     0                       # What write queue length does an incoming req see
system.mem_ctrls0.wrQLenPdf::63                     0                       # What write queue length does an incoming req see
system.mem_ctrls0.bytesPerActivate::samples        10492                       # Bytes accessed per row activation
system.mem_ctrls0.bytesPerActivate::mean   100.410217                       # Bytes accessed per row activation
system.mem_ctrls0.bytesPerActivate::gmean    87.239163                       # Bytes accessed per row activation
system.mem_ctrls0.bytesPerActivate::stdev    72.382652                       # Bytes accessed per row activation
system.mem_ctrls0.bytesPerActivate::0-127         6884     65.61%     65.61% # Bytes accessed per row activation
system.mem_ctrls0.bytesPerActivate::128-255         3184     30.35%     95.96% # Bytes accessed per row activation
system.mem_ctrls0.bytesPerActivate::256-383          268      2.55%     98.51% # Bytes accessed per row activation
system.mem_ctrls0.bytesPerActivate::384-511           88      0.84%     99.35% # Bytes accessed per row activation
system.mem_ctrls0.bytesPerActivate::512-639           43      0.41%     99.76% # Bytes accessed per row activation
system.mem_ctrls0.bytesPerActivate::640-767           12      0.11%     99.88% # Bytes accessed per row activation
system.mem_ctrls0.bytesPerActivate::768-895            4      0.04%     99.91% # Bytes accessed per row activation
system.mem_ctrls0.bytesPerActivate::896-1023            6      0.06%     99.97% # Bytes accessed per row activation
system.mem_ctrls0.bytesPerActivate::1024-1151            3      0.03%    100.00% # Bytes accessed per row activation
system.mem_ctrls0.bytesPerActivate::total        10492                       # Bytes accessed per row activation
system.mem_ctrls0.totQLat                  2777697521                       # Total ticks spent queuing
system.mem_ctrls0.totMemAccLat             3086341271                       # Total ticks spent from burst creation until serviced by the DRAM
system.mem_ctrls0.totBusLat                  82305000                       # Total ticks spent in databus transfers
system.mem_ctrls0.avgQLat                   168744.15                       # Average queueing delay per DRAM burst
system.mem_ctrls0.avgBusLat                   5000.00                       # Average bus latency per DRAM burst
system.mem_ctrls0.avgMemAccLat              187494.15                       # Average memory access latency per DRAM burst
system.mem_ctrls0.avgRdBW                        0.88                       # Average DRAM read bandwidth in MiByte/s
system.mem_ctrls0.avgWrBW                        0.00                       # Average achieved write bandwidth in MiByte/s
system.mem_ctrls0.avgRdBWSys                     0.88                       # Average system read bandwidth in MiByte/s
system.mem_ctrls0.avgWrBWSys                     0.00                       # Average system write bandwidth in MiByte/s
system.mem_ctrls0.peakBW                     12800.00                       # Theoretical peak bandwidth in MiByte/s
system.mem_ctrls0.busUtil                        0.01                       # Data bus utilization in percentage
system.mem_ctrls0.busUtilRead                    0.01                       # Data bus utilization in percentage for reads
system.mem_ctrls0.busUtilWrite                   0.00                       # Data bus utilization in percentage for writes
system.mem_ctrls0.avgRdQLen                      1.00                       # Average read queue length when enqueuing
system.mem_ctrls0.avgWrQLen                      0.00                       # Average write queue length when enqueuing
system.mem_ctrls0.readRowHits                    5969                       # Number of row buffer hits during reads
system.mem_ctrls0.writeRowHits                      0                       # Number of row buffer hits during writes
system.mem_ctrls0.readRowHitRate                36.26                       # Row buffer hit rate for reads
system.mem_ctrls0.writeRowHitRate                 nan                       # Row buffer hit rate for writes
system.mem_ctrls0.avgGap                  72939222.28                       # Average gap between requests
system.mem_ctrls0.pageHitRate                   36.26                       # Row buffer hit rate, read and write combined
system.mem_ctrls0_0.actEnergy                38049060                       # Energy for activate commands per rank (pJ)
system.mem_ctrls0_0.preEnergy                20223555                       # Energy for precharge commands per rank (pJ)
system.mem_ctrls0_0.readEnergy               59668980                       # Energy for read commands per rank (pJ)
system.mem_ctrls0_0.writeEnergy                     0                       # Energy for write commands per rank (pJ)
system.mem_ctrls0_0.refreshEnergy        5602443600.000001                       # Energy for refresh commands per rank (pJ)
system.mem_ctrls0_0.actBackEnergy          1151670180                       # Energy for active background per rank (pJ)
system.mem_ctrls0_0.preBackEnergy           340543200                       # Energy for precharge background per rank (pJ)
system.mem_ctrls0_0.actPowerDownEnergy    12272367330                       # Energy for active power-down per rank (pJ)
system.mem_ctrls0_0.prePowerDownEnergy     8646498240                       # Energy for precharge power-down per rank (pJ)
system.mem_ctrls0_0.selfRefreshEnergy    276976400820                       # Energy for self refresh per rank (pJ)
system.mem_ctrls0_0.totalEnergy          305109594075                       # Total energy per rank (pJ)
system.mem_ctrls0_0.averagePower           254.013433                       # Core power per rank (mW)
system.mem_ctrls0_0.totalIdleTime        1195404929938                       # Total Idle time Per DRAM Rank
system.mem_ctrls0_0.memoryStateTime::IDLE    692306977                       # Time in different power states
system.mem_ctrls0_0.memoryStateTime::REF   2385002000                       # Time in different power states
system.mem_ctrls0_0.memoryStateTime::SREF 1148309039543                       # Time in different power states
system.mem_ctrls0_0.memoryStateTime::PRE_PDN  22516872995                       # Time in different power states
system.mem_ctrls0_0.memoryStateTime::ACT    339037745                       # Time in different power states
system.mem_ctrls0_0.memoryStateTime::ACT_PDN  26913090033                       # Time in different power states
system.mem_ctrls0_1.actEnergy                36863820                       # Energy for activate commands per rank (pJ)
system.mem_ctrls0_1.preEnergy                19593585                       # Energy for precharge commands per rank (pJ)
system.mem_ctrls0_1.readEnergy               57862560                       # Energy for read commands per rank (pJ)
system.mem_ctrls0_1.writeEnergy                     0                       # Energy for write commands per rank (pJ)
system.mem_ctrls0_1.refreshEnergy        5084302080.000001                       # Energy for refresh commands per rank (pJ)
system.mem_ctrls0_1.actBackEnergy          1053110340                       # Energy for active background per rank (pJ)
system.mem_ctrls0_1.preBackEnergy           309275520                       # Energy for precharge background per rank (pJ)
system.mem_ctrls0_1.actPowerDownEnergy    11272245330                       # Energy for active power-down per rank (pJ)
system.mem_ctrls0_1.prePowerDownEnergy     7837081440                       # Energy for precharge power-down per rank (pJ)
system.mem_ctrls0_1.selfRefreshEnergy    277930337565                       # Energy for self refresh per rank (pJ)
system.mem_ctrls0_1.totalEnergy          303602274240                       # Total energy per rank (pJ)
system.mem_ctrls0_1.averagePower           252.758542                       # Core power per rank (mW)
system.mem_ctrls0_1.totalIdleTime        1197550146223                       # Total Idle time Per DRAM Rank
system.mem_ctrls0_1.memoryStateTime::IDLE    627785929                       # Time in different power states
system.mem_ctrls0_1.memoryStateTime::REF   2164202000                       # Time in different power states
system.mem_ctrls0_1.memoryStateTime::SREF 1152908030543                       # Time in different power states
system.mem_ctrls0_1.memoryStateTime::PRE_PDN  20409050700                       # Time in different power states
system.mem_ctrls0_1.memoryStateTime::ACT    326527274                       # Time in different power states
system.mem_ctrls0_1.memoryStateTime::ACT_PDN  24719752847                       # Time in different power states
system.mem_ctrls1.pwrStateResidencyTicks::UNDEFINED 110962289557080                       # Cumulative time (in ticks) in various power states
system.mem_ctrls1.bytes_read::cpu.inst             64                       # Number of bytes read from this memory
system.mem_ctrls1.bytes_read::switch_cpus.inst         4480                       # Number of bytes read from this memory
system.mem_ctrls1.bytes_read::switch_cpus.data      1026496                       # Number of bytes read from this memory
system.mem_ctrls1.bytes_read::switch_cpus_1.inst          960                       # Number of bytes read from this memory
system.mem_ctrls1.bytes_read::switch_cpus_1.data        24832                       # Number of bytes read from this memory
system.mem_ctrls1.bytes_read::total           1056832                       # Number of bytes read from this memory
system.mem_ctrls1.bytes_inst_read::cpu.inst           64                       # Number of instructions bytes read from this memory
system.mem_ctrls1.bytes_inst_read::switch_cpus.inst         4480                       # Number of instructions bytes read from this memory
system.mem_ctrls1.bytes_inst_read::switch_cpus_1.inst          960                       # Number of instructions bytes read from this memory
system.mem_ctrls1.bytes_inst_read::total         5504                       # Number of instructions bytes read from this memory
system.mem_ctrls1.num_reads::cpu.inst               1                       # Number of read requests responded to by this memory
system.mem_ctrls1.num_reads::switch_cpus.inst           70                       # Number of read requests responded to by this memory
system.mem_ctrls1.num_reads::switch_cpus.data        16039                       # Number of read requests responded to by this memory
system.mem_ctrls1.num_reads::switch_cpus_1.inst           15                       # Number of read requests responded to by this memory
system.mem_ctrls1.num_reads::switch_cpus_1.data          388                       # Number of read requests responded to by this memory
system.mem_ctrls1.num_reads::total              16513                       # Number of read requests responded to by this memory
system.mem_ctrls1.bw_read::cpu.inst                53                       # Total read bandwidth from this memory (bytes/s)
system.mem_ctrls1.bw_read::switch_cpus.inst         3730                       # Total read bandwidth from this memory (bytes/s)
system.mem_ctrls1.bw_read::switch_cpus.data       854591                       # Total read bandwidth from this memory (bytes/s)
system.mem_ctrls1.bw_read::switch_cpus_1.inst          799                       # Total read bandwidth from this memory (bytes/s)
system.mem_ctrls1.bw_read::switch_cpus_1.data        20673                       # Total read bandwidth from this memory (bytes/s)
system.mem_ctrls1.bw_read::total               879846                       # Total read bandwidth from this memory (bytes/s)
system.mem_ctrls1.bw_inst_read::cpu.inst           53                       # Instruction read bandwidth from this memory (bytes/s)
system.mem_ctrls1.bw_inst_read::switch_cpus.inst         3730                       # Instruction read bandwidth from this memory (bytes/s)
system.mem_ctrls1.bw_inst_read::switch_cpus_1.inst          799                       # Instruction read bandwidth from this memory (bytes/s)
system.mem_ctrls1.bw_inst_read::total            4582                       # Instruction read bandwidth from this memory (bytes/s)
system.mem_ctrls1.bw_total::cpu.inst               53                       # Total bandwidth to/from this memory (bytes/s)
system.mem_ctrls1.bw_total::switch_cpus.inst         3730                       # Total bandwidth to/from this memory (bytes/s)
system.mem_ctrls1.bw_total::switch_cpus.data       854591                       # Total bandwidth to/from this memory (bytes/s)
system.mem_ctrls1.bw_total::switch_cpus_1.inst          799                       # Total bandwidth to/from this memory (bytes/s)
system.mem_ctrls1.bw_total::switch_cpus_1.data        20673                       # Total bandwidth to/from this memory (bytes/s)
system.mem_ctrls1.bw_total::total              879846                       # Total bandwidth to/from this memory (bytes/s)
system.mem_ctrls1.readReqs                      16513                       # Number of read requests accepted
system.mem_ctrls1.writeReqs                         0                       # Number of write requests accepted
system.mem_ctrls1.readBursts                    16513                       # Number of DRAM read bursts, including those serviced by the write queue
system.mem_ctrls1.writeBursts                       0                       # Number of DRAM write bursts, including those merged in the write queue
system.mem_ctrls1.bytesReadDRAM               1056832                       # Total number of bytes read from DRAM
system.mem_ctrls1.bytesReadWrQ                      0                       # Total number of bytes read from write queue
system.mem_ctrls1.bytesWritten                      0                       # Total number of bytes written to DRAM
system.mem_ctrls1.bytesReadSys                1056832                       # Total read bytes from the system interface side
system.mem_ctrls1.bytesWrittenSys                   0                       # Total written bytes from the system interface side
system.mem_ctrls1.servicedByWrQ                     0                       # Number of DRAM read bursts serviced by the write queue
system.mem_ctrls1.mergedWrBursts                    0                       # Number of DRAM write bursts merged with an existing one
system.mem_ctrls1.neitherReadNorWriteReqs            0                       # Number of requests that are neither read nor write
system.mem_ctrls1.perBankRdBursts::0              964                       # Per bank write bursts
system.mem_ctrls1.perBankRdBursts::1             1021                       # Per bank write bursts
system.mem_ctrls1.perBankRdBursts::2              995                       # Per bank write bursts
system.mem_ctrls1.perBankRdBursts::3             1039                       # Per bank write bursts
system.mem_ctrls1.perBankRdBursts::4             1006                       # Per bank write bursts
system.mem_ctrls1.perBankRdBursts::5             1130                       # Per bank write bursts
system.mem_ctrls1.perBankRdBursts::6             1129                       # Per bank write bursts
system.mem_ctrls1.perBankRdBursts::7             1050                       # Per bank write bursts
system.mem_ctrls1.perBankRdBursts::8             1093                       # Per bank write bursts
system.mem_ctrls1.perBankRdBursts::9             1038                       # Per bank write bursts
system.mem_ctrls1.perBankRdBursts::10            1107                       # Per bank write bursts
system.mem_ctrls1.perBankRdBursts::11            1067                       # Per bank write bursts
system.mem_ctrls1.perBankRdBursts::12             882                       # Per bank write bursts
system.mem_ctrls1.perBankRdBursts::13             923                       # Per bank write bursts
system.mem_ctrls1.perBankRdBursts::14            1028                       # Per bank write bursts
system.mem_ctrls1.perBankRdBursts::15            1041                       # Per bank write bursts
system.mem_ctrls1.perBankWrBursts::0                0                       # Per bank write bursts
system.mem_ctrls1.perBankWrBursts::1                0                       # Per bank write bursts
system.mem_ctrls1.perBankWrBursts::2                0                       # Per bank write bursts
system.mem_ctrls1.perBankWrBursts::3                0                       # Per bank write bursts
system.mem_ctrls1.perBankWrBursts::4                0                       # Per bank write bursts
system.mem_ctrls1.perBankWrBursts::5                0                       # Per bank write bursts
system.mem_ctrls1.perBankWrBursts::6                0                       # Per bank write bursts
system.mem_ctrls1.perBankWrBursts::7                0                       # Per bank write bursts
system.mem_ctrls1.perBankWrBursts::8                0                       # Per bank write bursts
system.mem_ctrls1.perBankWrBursts::9                0                       # Per bank write bursts
system.mem_ctrls1.perBankWrBursts::10               0                       # Per bank write bursts
system.mem_ctrls1.perBankWrBursts::11               0                       # Per bank write bursts
system.mem_ctrls1.perBankWrBursts::12               0                       # Per bank write bursts
system.mem_ctrls1.perBankWrBursts::13               0                       # Per bank write bursts
system.mem_ctrls1.perBankWrBursts::14               0                       # Per bank write bursts
system.mem_ctrls1.perBankWrBursts::15               0                       # Per bank write bursts
system.mem_ctrls1.numRdRetry                        0                       # Number of times read queue was full causing retry
system.mem_ctrls1.numWrRetry                        0                       # Number of times write queue was full causing retry
system.mem_ctrls1.totGap                 1199560464108                       # Total gap between requests
system.mem_ctrls1.readPktSize::0                    0                       # Read request sizes (log2)
system.mem_ctrls1.readPktSize::1                    0                       # Read request sizes (log2)
system.mem_ctrls1.readPktSize::2                    0                       # Read request sizes (log2)
system.mem_ctrls1.readPktSize::3                    0                       # Read request sizes (log2)
system.mem_ctrls1.readPktSize::4                    0                       # Read request sizes (log2)
system.mem_ctrls1.readPktSize::5                    0                       # Read request sizes (log2)
system.mem_ctrls1.readPktSize::6                16513                       # Read request sizes (log2)
system.mem_ctrls1.writePktSize::0                   0                       # Write request sizes (log2)
system.mem_ctrls1.writePktSize::1                   0                       # Write request sizes (log2)
system.mem_ctrls1.writePktSize::2                   0                       # Write request sizes (log2)
system.mem_ctrls1.writePktSize::3                   0                       # Write request sizes (log2)
system.mem_ctrls1.writePktSize::4                   0                       # Write request sizes (log2)
system.mem_ctrls1.writePktSize::5                   0                       # Write request sizes (log2)
system.mem_ctrls1.writePktSize::6                   0                       # Write request sizes (log2)
system.mem_ctrls1.rdQLenPdf::0                  16488                       # What read queue length does an incoming req see
system.mem_ctrls1.rdQLenPdf::1                     23                       # What read queue length does an incoming req see
system.mem_ctrls1.rdQLenPdf::2                      1                       # What read queue length does an incoming req see
system.mem_ctrls1.rdQLenPdf::3                      1                       # What read queue length does an incoming req see
system.mem_ctrls1.rdQLenPdf::4                      0                       # What read queue length does an incoming req see
system.mem_ctrls1.rdQLenPdf::5                      0                       # What read queue length does an incoming req see
system.mem_ctrls1.rdQLenPdf::6                      0                       # What read queue length does an incoming req see
system.mem_ctrls1.rdQLenPdf::7                      0                       # What read queue length does an incoming req see
system.mem_ctrls1.rdQLenPdf::8                      0                       # What read queue length does an incoming req see
system.mem_ctrls1.rdQLenPdf::9                      0                       # What read queue length does an incoming req see
system.mem_ctrls1.rdQLenPdf::10                     0                       # What read queue length does an incoming req see
system.mem_ctrls1.rdQLenPdf::11                     0                       # What read queue length does an incoming req see
system.mem_ctrls1.rdQLenPdf::12                     0                       # What read queue length does an incoming req see
system.mem_ctrls1.rdQLenPdf::13                     0                       # What read queue length does an incoming req see
system.mem_ctrls1.rdQLenPdf::14                     0                       # What read queue length does an incoming req see
system.mem_ctrls1.rdQLenPdf::15                     0                       # What read queue length does an incoming req see
system.mem_ctrls1.rdQLenPdf::16                     0                       # What read queue length does an incoming req see
system.mem_ctrls1.rdQLenPdf::17                     0                       # What read queue length does an incoming req see
system.mem_ctrls1.rdQLenPdf::18                     0                       # What read queue length does an incoming req see
system.mem_ctrls1.rdQLenPdf::19                     0                       # What read queue length does an incoming req see
system.mem_ctrls1.rdQLenPdf::20                     0                       # What read queue length does an incoming req see
system.mem_ctrls1.rdQLenPdf::21                     0                       # What read queue length does an incoming req see
system.mem_ctrls1.rdQLenPdf::22                     0                       # What read queue length does an incoming req see
system.mem_ctrls1.rdQLenPdf::23                     0                       # What read queue length does an incoming req see
system.mem_ctrls1.rdQLenPdf::24                     0                       # What read queue length does an incoming req see
system.mem_ctrls1.rdQLenPdf::25                     0                       # What read queue length does an incoming req see
system.mem_ctrls1.rdQLenPdf::26                     0                       # What read queue length does an incoming req see
system.mem_ctrls1.rdQLenPdf::27                     0                       # What read queue length does an incoming req see
system.mem_ctrls1.rdQLenPdf::28                     0                       # What read queue length does an incoming req see
system.mem_ctrls1.rdQLenPdf::29                     0                       # What read queue length does an incoming req see
system.mem_ctrls1.rdQLenPdf::30                     0                       # What read queue length does an incoming req see
system.mem_ctrls1.rdQLenPdf::31                     0                       # What read queue length does an incoming req see
system.mem_ctrls1.wrQLenPdf::0                      0                       # What write queue length does an incoming req see
system.mem_ctrls1.wrQLenPdf::1                      0                       # What write queue length does an incoming req see
system.mem_ctrls1.wrQLenPdf::2                      0                       # What write queue length does an incoming req see
system.mem_ctrls1.wrQLenPdf::3                      0                       # What write queue length does an incoming req see
system.mem_ctrls1.wrQLenPdf::4                      0                       # What write queue length does an incoming req see
system.mem_ctrls1.wrQLenPdf::5                      0                       # What write queue length does an incoming req see
system.mem_ctrls1.wrQLenPdf::6                      0                       # What write queue length does an incoming req see
system.mem_ctrls1.wrQLenPdf::7                      0                       # What write queue length does an incoming req see
system.mem_ctrls1.wrQLenPdf::8                      0                       # What write queue length does an incoming req see
system.mem_ctrls1.wrQLenPdf::9                      0                       # What write queue length does an incoming req see
system.mem_ctrls1.wrQLenPdf::10                     0                       # What write queue length does an incoming req see
system.mem_ctrls1.wrQLenPdf::11                     0                       # What write queue length does an incoming req see
system.mem_ctrls1.wrQLenPdf::12                     0                       # What write queue length does an incoming req see
system.mem_ctrls1.wrQLenPdf::13                     0                       # What write queue length does an incoming req see
system.mem_ctrls1.wrQLenPdf::14                     0                       # What write queue length does an incoming req see
system.mem_ctrls1.wrQLenPdf::15                     0                       # What write queue length does an incoming req see
system.mem_ctrls1.wrQLenPdf::16                     0                       # What write queue length does an incoming req see
system.mem_ctrls1.wrQLenPdf::17                     0                       # What write queue length does an incoming req see
system.mem_ctrls1.wrQLenPdf::18                     0                       # What write queue length does an incoming req see
system.mem_ctrls1.wrQLenPdf::19                     0                       # What write queue length does an incoming req see
system.mem_ctrls1.wrQLenPdf::20                     0                       # What write queue length does an incoming req see
system.mem_ctrls1.wrQLenPdf::21                     0                       # What write queue length does an incoming req see
system.mem_ctrls1.wrQLenPdf::22                     0                       # What write queue length does an incoming req see
system.mem_ctrls1.wrQLenPdf::23                     0                       # What write queue length does an incoming req see
system.mem_ctrls1.wrQLenPdf::24                     0                       # What write queue length does an incoming req see
system.mem_ctrls1.wrQLenPdf::25                     0                       # What write queue length does an incoming req see
system.mem_ctrls1.wrQLenPdf::26                     0                       # What write queue length does an incoming req see
system.mem_ctrls1.wrQLenPdf::27                     0                       # What write queue length does an incoming req see
system.mem_ctrls1.wrQLenPdf::28                     0                       # What write queue length does an incoming req see
system.mem_ctrls1.wrQLenPdf::29                     0                       # What write queue length does an incoming req see
system.mem_ctrls1.wrQLenPdf::30                     0                       # What write queue length does an incoming req see
system.mem_ctrls1.wrQLenPdf::31                     0                       # What write queue length does an incoming req see
system.mem_ctrls1.wrQLenPdf::32                     0                       # What write queue length does an incoming req see
system.mem_ctrls1.wrQLenPdf::33                     0                       # What write queue length does an incoming req see
system.mem_ctrls1.wrQLenPdf::34                     0                       # What write queue length does an incoming req see
system.mem_ctrls1.wrQLenPdf::35                     0                       # What write queue length does an incoming req see
system.mem_ctrls1.wrQLenPdf::36                     0                       # What write queue length does an incoming req see
system.mem_ctrls1.wrQLenPdf::37                     0                       # What write queue length does an incoming req see
system.mem_ctrls1.wrQLenPdf::38                     0                       # What write queue length does an incoming req see
system.mem_ctrls1.wrQLenPdf::39                     0                       # What write queue length does an incoming req see
system.mem_ctrls1.wrQLenPdf::40                     0                       # What write queue length does an incoming req see
system.mem_ctrls1.wrQLenPdf::41                     0                       # What write queue length does an incoming req see
system.mem_ctrls1.wrQLenPdf::42                     0                       # What write queue length does an incoming req see
system.mem_ctrls1.wrQLenPdf::43                     0                       # What write queue length does an incoming req see
system.mem_ctrls1.wrQLenPdf::44                     0                       # What write queue length does an incoming req see
system.mem_ctrls1.wrQLenPdf::45                     0                       # What write queue length does an incoming req see
system.mem_ctrls1.wrQLenPdf::46                     0                       # What write queue length does an incoming req see
system.mem_ctrls1.wrQLenPdf::47                     0                       # What write queue length does an incoming req see
system.mem_ctrls1.wrQLenPdf::48                     0                       # What write queue length does an incoming req see
system.mem_ctrls1.wrQLenPdf::49                     0                       # What write queue length does an incoming req see
system.mem_ctrls1.wrQLenPdf::50                     0                       # What write queue length does an incoming req see
system.mem_ctrls1.wrQLenPdf::51                     0                       # What write queue length does an incoming req see
system.mem_ctrls1.wrQLenPdf::52                     0                       # What write queue length does an incoming req see
system.mem_ctrls1.wrQLenPdf::53                     0                       # What write queue length does an incoming req see
system.mem_ctrls1.wrQLenPdf::54                     0                       # What write queue length does an incoming req see
system.mem_ctrls1.wrQLenPdf::55                     0                       # What write queue length does an incoming req see
system.mem_ctrls1.wrQLenPdf::56                     0                       # What write queue length does an incoming req see
system.mem_ctrls1.wrQLenPdf::57                     0                       # What write queue length does an incoming req see
system.mem_ctrls1.wrQLenPdf::58                     0                       # What write queue length does an incoming req see
system.mem_ctrls1.wrQLenPdf::59                     0                       # What write queue length does an incoming req see
system.mem_ctrls1.wrQLenPdf::60                     0                       # What write queue length does an incoming req see
system.mem_ctrls1.wrQLenPdf::61                     0                       # What write queue length does an incoming req see
system.mem_ctrls1.wrQLenPdf::62                     0                       # What write queue length does an incoming req see
system.mem_ctrls1.wrQLenPdf::63                     0                       # What write queue length does an incoming req see
system.mem_ctrls1.bytesPerActivate::samples        10347                       # Bytes accessed per row activation
system.mem_ctrls1.bytesPerActivate::mean   102.138977                       # Bytes accessed per row activation
system.mem_ctrls1.bytesPerActivate::gmean    88.238695                       # Bytes accessed per row activation
system.mem_ctrls1.bytesPerActivate::stdev    74.961664                       # Bytes accessed per row activation
system.mem_ctrls1.bytesPerActivate::0-127         6703     64.78%     64.78% # Bytes accessed per row activation
system.mem_ctrls1.bytesPerActivate::128-255         3175     30.69%     95.47% # Bytes accessed per row activation
system.mem_ctrls1.bytesPerActivate::256-383          303      2.93%     98.40% # Bytes accessed per row activation
system.mem_ctrls1.bytesPerActivate::384-511           95      0.92%     99.31% # Bytes accessed per row activation
system.mem_ctrls1.bytesPerActivate::512-639           43      0.42%     99.73% # Bytes accessed per row activation
system.mem_ctrls1.bytesPerActivate::640-767           15      0.14%     99.87% # Bytes accessed per row activation
system.mem_ctrls1.bytesPerActivate::768-895            3      0.03%     99.90% # Bytes accessed per row activation
system.mem_ctrls1.bytesPerActivate::896-1023            4      0.04%     99.94% # Bytes accessed per row activation
system.mem_ctrls1.bytesPerActivate::1024-1151            6      0.06%    100.00% # Bytes accessed per row activation
system.mem_ctrls1.bytesPerActivate::total        10347                       # Bytes accessed per row activation
system.mem_ctrls1.totQLat                  2693627576                       # Total ticks spent queuing
system.mem_ctrls1.totMemAccLat             3003246326                       # Total ticks spent from burst creation until serviced by the DRAM
system.mem_ctrls1.totBusLat                  82565000                       # Total ticks spent in databus transfers
system.mem_ctrls1.avgQLat                   163121.64                       # Average queueing delay per DRAM burst
system.mem_ctrls1.avgBusLat                   5000.00                       # Average bus latency per DRAM burst
system.mem_ctrls1.avgMemAccLat              181871.64                       # Average memory access latency per DRAM burst
system.mem_ctrls1.avgRdBW                        0.88                       # Average DRAM read bandwidth in MiByte/s
system.mem_ctrls1.avgWrBW                        0.00                       # Average achieved write bandwidth in MiByte/s
system.mem_ctrls1.avgRdBWSys                     0.88                       # Average system read bandwidth in MiByte/s
system.mem_ctrls1.avgWrBWSys                     0.00                       # Average system write bandwidth in MiByte/s
system.mem_ctrls1.peakBW                     12800.00                       # Theoretical peak bandwidth in MiByte/s
system.mem_ctrls1.busUtil                        0.01                       # Data bus utilization in percentage
system.mem_ctrls1.busUtilRead                    0.01                       # Data bus utilization in percentage for reads
system.mem_ctrls1.busUtilWrite                   0.00                       # Data bus utilization in percentage for writes
system.mem_ctrls1.avgRdQLen                      1.00                       # Average read queue length when enqueuing
system.mem_ctrls1.avgWrQLen                      0.00                       # Average write queue length when enqueuing
system.mem_ctrls1.readRowHits                    6166                       # Number of row buffer hits during reads
system.mem_ctrls1.writeRowHits                      0                       # Number of row buffer hits during writes
system.mem_ctrls1.readRowHitRate                37.34                       # Row buffer hit rate for reads
system.mem_ctrls1.writeRowHitRate                 nan                       # Row buffer hit rate for writes
system.mem_ctrls1.avgGap                  72643399.99                       # Average gap between requests
system.mem_ctrls1.pageHitRate                   37.34                       # Row buffer hit rate, read and write combined
system.mem_ctrls1_0.actEnergy                37227960                       # Energy for activate commands per rank (pJ)
system.mem_ctrls1_0.preEnergy                19787130                       # Energy for precharge commands per rank (pJ)
system.mem_ctrls1_0.readEnergy               59504760                       # Energy for read commands per rank (pJ)
system.mem_ctrls1_0.writeEnergy                     0                       # Energy for write commands per rank (pJ)
system.mem_ctrls1_0.refreshEnergy        5296967520.000001                       # Energy for refresh commands per rank (pJ)
system.mem_ctrls1_0.actBackEnergy          1094921550                       # Energy for active background per rank (pJ)
system.mem_ctrls1_0.preBackEnergy           320720640                       # Energy for precharge background per rank (pJ)
system.mem_ctrls1_0.actPowerDownEnergy    11793234450                       # Energy for active power-down per rank (pJ)
system.mem_ctrls1_0.prePowerDownEnergy     8074800480                       # Energy for precharge power-down per rank (pJ)
system.mem_ctrls1_0.selfRefreshEnergy    277540074915                       # Energy for self refresh per rank (pJ)
system.mem_ctrls1_0.totalEnergy          304238373105                       # Total energy per rank (pJ)
system.mem_ctrls1_0.averagePower           253.288114                       # Core power per rank (mW)
system.mem_ctrls1_0.totalIdleTime        1195581158799                       # Total Idle time Per DRAM Rank
system.mem_ctrls1_0.memoryStateTime::IDLE    649557319                       # Time in different power states
system.mem_ctrls1_0.memoryStateTime::REF   2254852000                       # Time in different power states
system.mem_ctrls1_0.memoryStateTime::SREF 1151026016043                       # Time in different power states
system.mem_ctrls1_0.memoryStateTime::PRE_PDN  21028175540                       # Time in different power states
system.mem_ctrls1_0.memoryStateTime::ACT    334356562                       # Time in different power states
system.mem_ctrls1_0.memoryStateTime::ACT_PDN  25862391829                       # Time in different power states
system.mem_ctrls1_1.actEnergy                36649620                       # Energy for activate commands per rank (pJ)
system.mem_ctrls1_1.preEnergy                19479735                       # Energy for precharge commands per rank (pJ)
system.mem_ctrls1_1.readEnergy               58398060                       # Energy for read commands per rank (pJ)
system.mem_ctrls1_1.writeEnergy                     0                       # Energy for write commands per rank (pJ)
system.mem_ctrls1_1.refreshEnergy        4998867120.000001                       # Energy for refresh commands per rank (pJ)
system.mem_ctrls1_1.actBackEnergy          1038741210                       # Energy for active background per rank (pJ)
system.mem_ctrls1_1.preBackEnergy           306136320                       # Energy for precharge background per rank (pJ)
system.mem_ctrls1_1.actPowerDownEnergy    11032125420                       # Energy for active power-down per rank (pJ)
system.mem_ctrls1_1.prePowerDownEnergy     7669843200                       # Energy for precharge power-down per rank (pJ)
system.mem_ctrls1_1.selfRefreshEnergy    278164573605                       # Energy for self refresh per rank (pJ)
system.mem_ctrls1_1.totalEnergy          303326061390                       # Total energy per rank (pJ)
system.mem_ctrls1_1.averagePower           252.528586                       # Core power per rank (mW)
system.mem_ctrls1_1.totalIdleTime        1196496182926                       # Total Idle time Per DRAM Rank
system.mem_ctrls1_1.memoryStateTime::IDLE    622980154                       # Time in different power states
system.mem_ctrls1_1.memoryStateTime::REF   2127996000                       # Time in different power states
system.mem_ctrls1_1.memoryStateTime::SREF 1153910566543                       # Time in different power states
system.mem_ctrls1_1.memoryStateTime::PRE_PDN  19973451484                       # Time in different power states
system.mem_ctrls1_1.memoryStateTime::ACT    327172438                       # Time in different power states
system.mem_ctrls1_1.memoryStateTime::ACT_PDN  24193182674                       # Time in different power states
system.pwrStateResidencyTicks::UNDEFINED 110962289557080                       # Cumulative time (in ticks) in various power states
system.cpu.branchPred.lookups                       3                       # Number of BP lookups
system.cpu.branchPred.condPredicted                 3                       # Number of conditional branches predicted
system.cpu.branchPred.condIncorrect                 1                       # Number of conditional branches incorrect
system.cpu.branchPred.BTBLookups                    0                       # Number of BTB lookups
system.cpu.branchPred.BTBHits                       0                       # Number of BTB hits
system.cpu.branchPred.BTBCorrect                    0                       # Number of correct BTB predictions (this stat may not work properly.
system.cpu.branchPred.BTBHitPct                   nan                       # BTB Hit Percentage
system.cpu.branchPred.usedRAS                       0                       # Number of times the RAS was used to get a target.
system.cpu.branchPred.RASInCorrect                  0                       # Number of incorrect RAS predictions.
system.cpu.branchPred.indirectLookups               0                       # Number of indirect predictor lookups.
system.cpu.branchPred.indirectHits                  0                       # Number of indirect target hits.
system.cpu.branchPred.indirectMisses                0                       # Number of indirect misses.
system.cpu.branchPredindirectMispredicted            0                       # Number of mispredicted indirect branches.
system.cpu_voltage_domain.voltage                   1                       # Voltage in Volts
system.cpu_clk_domain.clock                       333                       # Clock period in ticks
system.cpu.dtb.fetch_hits                           0                       # ITB hits
system.cpu.dtb.fetch_misses                         0                       # ITB misses
system.cpu.dtb.fetch_acv                            0                       # ITB acv
system.cpu.dtb.fetch_accesses                       0                       # ITB accesses
system.cpu.dtb.read_hits                            0                       # DTB read hits
system.cpu.dtb.read_misses                          0                       # DTB read misses
system.cpu.dtb.read_acv                             0                       # DTB read access violations
system.cpu.dtb.read_accesses                        0                       # DTB read accesses
system.cpu.dtb.write_hits                           0                       # DTB write hits
system.cpu.dtb.write_misses                         0                       # DTB write misses
system.cpu.dtb.write_acv                            0                       # DTB write access violations
system.cpu.dtb.write_accesses                       0                       # DTB write accesses
system.cpu.dtb.data_hits                            0                       # DTB hits
system.cpu.dtb.data_misses                          0                       # DTB misses
system.cpu.dtb.data_acv                             0                       # DTB access violations
system.cpu.dtb.data_accesses                        0                       # DTB accesses
system.cpu.itb.fetch_hits                           5                       # ITB hits
system.cpu.itb.fetch_misses                         0                       # ITB misses
system.cpu.itb.fetch_acv                            0                       # ITB acv
system.cpu.itb.fetch_accesses                       5                       # ITB accesses
system.cpu.itb.read_hits                            0                       # DTB read hits
system.cpu.itb.read_misses                          0                       # DTB read misses
system.cpu.itb.read_acv                             0                       # DTB read access violations
system.cpu.itb.read_accesses                        0                       # DTB read accesses
system.cpu.itb.write_hits                           0                       # DTB write hits
system.cpu.itb.write_misses                         0                       # DTB write misses
system.cpu.itb.write_acv                            0                       # DTB write access violations
system.cpu.itb.write_accesses                       0                       # DTB write accesses
system.cpu.itb.data_hits                            0                       # DTB hits
system.cpu.itb.data_misses                          0                       # DTB misses
system.cpu.itb.data_acv                             0                       # DTB access violations
system.cpu.itb.data_accesses                        0                       # DTB accesses
system.cpu.workload.num_syscalls                    0                       # Number of system calls
system.cpu.pwrStateResidencyTicks::ON    1201155349293                       # Cumulative time (in ticks) in various power states
system.cpu.numCycles                              501                       # number of cpu cycles simulated
system.cpu.numWorkItemsStarted                      0                       # number of work items this cpu started
system.cpu.numWorkItemsCompleted                    0                       # number of work items this cpu completed
system.cpu.fetch.icacheStallCycles                 27                       # Number of cycles fetch is stalled on an Icache miss
system.cpu.fetch.Insts                             14                       # Number of instructions fetch has processed
system.cpu.fetch.Branches                           3                       # Number of branches that fetch encountered
system.cpu.fetch.Cycles                             3                       # Number of cycles fetch has run and was not squashing or blocked
system.cpu.fetch.SquashCycles                       5                       # Number of cycles fetch has spent squashing
system.cpu.fetch.PendingDrainCycles                 3                       # Number of cycles fetch has spent waiting on pipes to drain
system.cpu.fetch.CacheLines                         5                       # Number of cache lines fetched
system.cpu.fetch.IcacheSquashes                     3                       # Number of outstanding Icache misses that were squashed
system.cpu.fetch.rateDist::samples                 35                       # Number of instructions fetched each cycle (Total)
system.cpu.fetch.rateDist::mean              0.400000                       # Number of instructions fetched each cycle (Total)
system.cpu.fetch.rateDist::stdev             1.575548                       # Number of instructions fetched each cycle (Total)
system.cpu.fetch.rateDist::underflows               0      0.00%      0.00% # Number of instructions fetched each cycle (Total)
system.cpu.fetch.rateDist::0                       32     91.43%     91.43% # Number of instructions fetched each cycle (Total)
system.cpu.fetch.rateDist::1                        1      2.86%     94.29% # Number of instructions fetched each cycle (Total)
system.cpu.fetch.rateDist::2                        0      0.00%     94.29% # Number of instructions fetched each cycle (Total)
system.cpu.fetch.rateDist::3                        0      0.00%     94.29% # Number of instructions fetched each cycle (Total)
system.cpu.fetch.rateDist::4                        0      0.00%     94.29% # Number of instructions fetched each cycle (Total)
system.cpu.fetch.rateDist::5                        1      2.86%     97.14% # Number of instructions fetched each cycle (Total)
system.cpu.fetch.rateDist::6                        0      0.00%     97.14% # Number of instructions fetched each cycle (Total)
system.cpu.fetch.rateDist::7                        0      0.00%     97.14% # Number of instructions fetched each cycle (Total)
system.cpu.fetch.rateDist::8                        1      2.86%    100.00% # Number of instructions fetched each cycle (Total)
system.cpu.fetch.rateDist::overflows                0      0.00%    100.00% # Number of instructions fetched each cycle (Total)
system.cpu.fetch.rateDist::min_value                0                       # Number of instructions fetched each cycle (Total)
system.cpu.fetch.rateDist::max_value                8                       # Number of instructions fetched each cycle (Total)
system.cpu.fetch.rateDist::total                   35                       # Number of instructions fetched each cycle (Total)
system.cpu.fetch.branchRate                  0.005988                       # Number of branch fetches per cycle
system.cpu.fetch.rate                        0.027944                       # Number of inst fetches per cycle
system.cpu.decode.IdleCycles                       29                       # Number of cycles decode is idle
system.cpu.decode.RunCycles                         3                       # Number of cycles decode is running
system.cpu.decode.SquashCycles                      3                       # Number of cycles decode is squashing
system.cpu.decode.DecodedInsts                     14                       # Number of instructions handled by decode
system.cpu.rename.SquashCycles                      3                       # Number of cycles rename is squashing
system.cpu.rename.IdleCycles                       29                       # Number of cycles rename is idle
system.cpu.rename.serializeStallCycles              0                       # count of cycles rename stalled for serializing inst
system.cpu.rename.RunCycles                         3                       # Number of cycles rename is running
system.cpu.rename.RenamedInsts                     14                       # Number of instructions processed by rename
system.cpu.rename.RenamedOperands                  11                       # Number of destination operands rename has renamed
system.cpu.rename.RenameLookups                    22                       # Number of register rename lookups that rename has made
system.cpu.rename.int_rename_lookups               22                       # Number of integer rename lookups
system.cpu.rename.CommittedMaps                     4                       # Number of HB maps that are committed
system.cpu.rename.UndoneMaps                        7                       # Number of HB maps that are undone due to squashing
system.cpu.rename.serializingInsts                  0                       # count of serializing insts renamed
system.cpu.rename.tempSerializingInsts              0                       # count of temporary serializing insts renamed
system.cpu.rename.skidInsts                         0                       # count of insts added to the skid buffer
system.cpu.memDep0.insertedLoads                    0                       # Number of loads inserted to the mem dependence unit.
system.cpu.memDep0.insertedStores                   0                       # Number of stores inserted to the mem dependence unit.
system.cpu.memDep0.conflictingLoads                 0                       # Number of conflicting loads.
system.cpu.memDep0.conflictingStores                0                       # Number of conflicting stores.
system.cpu.iq.iqInstsAdded                         14                       # Number of instructions added to the IQ (excludes non-spec)
system.cpu.iq.iqInstsIssued                        14                       # Number of instructions issued
system.cpu.iq.iqSquashedInstsExamined               9                       # Number of squashed instructions iterated over during squash; mainly for profiling
system.cpu.iq.issued_per_cycle::samples            35                       # Number of insts issued each cycle
system.cpu.iq.issued_per_cycle::mean         0.400000                       # Number of insts issued each cycle
system.cpu.iq.issued_per_cycle::stdev        0.735647                       # Number of insts issued each cycle
system.cpu.iq.issued_per_cycle::underflows            0      0.00%      0.00% # Number of insts issued each cycle
system.cpu.iq.issued_per_cycle::0                  26     74.29%     74.29% # Number of insts issued each cycle
system.cpu.iq.issued_per_cycle::1                   4     11.43%     85.71% # Number of insts issued each cycle
system.cpu.iq.issued_per_cycle::2                   5     14.29%    100.00% # Number of insts issued each cycle
system.cpu.iq.issued_per_cycle::3                   0      0.00%    100.00% # Number of insts issued each cycle
system.cpu.iq.issued_per_cycle::4                   0      0.00%    100.00% # Number of insts issued each cycle
system.cpu.iq.issued_per_cycle::5                   0      0.00%    100.00% # Number of insts issued each cycle
system.cpu.iq.issued_per_cycle::6                   0      0.00%    100.00% # Number of insts issued each cycle
system.cpu.iq.issued_per_cycle::7                   0      0.00%    100.00% # Number of insts issued each cycle
system.cpu.iq.issued_per_cycle::8                   0      0.00%    100.00% # Number of insts issued each cycle
system.cpu.iq.issued_per_cycle::overflows            0      0.00%    100.00% # Number of insts issued each cycle
system.cpu.iq.issued_per_cycle::min_value            0                       # Number of insts issued each cycle
system.cpu.iq.issued_per_cycle::max_value            2                       # Number of insts issued each cycle
system.cpu.iq.issued_per_cycle::total              35                       # Number of insts issued each cycle
system.cpu.iq.fu_full::No_OpClass                   0                       # attempts to use FU when none available
system.cpu.iq.fu_full::IntAlu                       0                       # attempts to use FU when none available
system.cpu.iq.fu_full::IntMult                      0                       # attempts to use FU when none available
system.cpu.iq.fu_full::IntDiv                       0                       # attempts to use FU when none available
system.cpu.iq.fu_full::FloatAdd                     0                       # attempts to use FU when none available
system.cpu.iq.fu_full::FloatCmp                     0                       # attempts to use FU when none available
system.cpu.iq.fu_full::FloatCvt                     0                       # attempts to use FU when none available
system.cpu.iq.fu_full::FloatMult                    0                       # attempts to use FU when none available
system.cpu.iq.fu_full::FloatMultAcc                 0                       # attempts to use FU when none available
system.cpu.iq.fu_full::FloatDiv                     0                       # attempts to use FU when none available
system.cpu.iq.fu_full::FloatMisc                    0                       # attempts to use FU when none available
system.cpu.iq.fu_full::FloatSqrt                    0                       # attempts to use FU when none available
system.cpu.iq.fu_full::SimdAdd                      0                       # attempts to use FU when none available
system.cpu.iq.fu_full::SimdAddAcc                   0                       # attempts to use FU when none available
[...]
system.switch_cpus_1.iq.int_inst_queue_wakeup_accesses    578900582                       # Number of integer instruction queue wakeup accesses
system.switch_cpus_1.iq.fp_inst_queue_reads         1206                       # Number of floating instruction queue reads
system.switch_cpus_1.iq.fp_inst_queue_writes         1056                       # Number of floating instruction queue writes
system.switch_cpus_1.iq.fp_inst_queue_wakeup_accesses          571                       # Number of floating instruction queue wakeup accesses
system.switch_cpus_1.iq.int_alu_accesses    608825983                       # Number of integer alu accesses
system.switch_cpus_1.iq.fp_alu_accesses           605                       # Number of floating point alu accesses
system.switch_cpus_1.iew.lsq.thread0.forwLoads     55577051                       # Number of loads that had data forwarded from stores
system.switch_cpus_1.iew.lsq.thread0.invAddrLoads            0                       # Number of loads ignored due to an invalid address
system.switch_cpus_1.iew.lsq.thread0.squashedLoads     36053060                       # Number of loads squashed
system.switch_cpus_1.iew.lsq.thread0.ignoredResponses       293399                       # Number of memory responses ignored because the instruction is squashed
system.switch_cpus_1.iew.lsq.thread0.memOrderViolation         9461                       # Number of memory ordering violations
system.switch_cpus_1.iew.lsq.thread0.squashedStores     17095312                       # Number of stores squashed
system.switch_cpus_1.iew.lsq.thread0.invAddrSwpfs            0                       # Number of software prefetches ignored due to an invalid address
system.switch_cpus_1.iew.lsq.thread0.blockedLoads            0                       # Number of blocked loads due to partial load-store forwarding
system.switch_cpus_1.iew.lsq.thread0.rescheduledLoads            0                       # Number of loads that were rescheduled
system.switch_cpus_1.iew.lsq.thread0.cacheBlocked        54243                       # Number of times an access to memory failed due to the cache being blocked
system.switch_cpus_1.iew.iewIdleCycles              0                       # Number of cycles IEW is idle
system.switch_cpus_1.iew.iewSquashCycles      2602527                       # Number of cycles IEW is squashing
system.switch_cpus_1.iew.iewBlockCycles      19886680                       # Number of cycles IEW is blocking
system.switch_cpus_1.iew.iewUnblockCycles     53018175                       # Number of cycles IEW is unblocking
system.switch_cpus_1.iew.iewDispatchedInsts    627005065                       # Number of instructions dispatched to IQ
system.switch_cpus_1.iew.iewDispSquashedInsts       236771                       # Number of squashed instructions skipped by dispatch
system.switch_cpus_1.iew.iewDispLoadInsts    183770984                       # Number of dispatched load instructions
system.switch_cpus_1.iew.iewDispStoreInsts     86008523                       # Number of dispatched store instructions
system.switch_cpus_1.iew.iewDispNonSpecInsts          107                       # Number of dispatched non-speculative instructions
system.switch_cpus_1.iew.iewIQFullEvents       145374                       # Number of times the IQ has become full, causing a stall
system.switch_cpus_1.iew.iewLSQFullEvents     52903048                       # Number of times the LSQ has become full, causing a stall
system.switch_cpus_1.iew.memOrderViolationEvents         9461                       # Number of memory order violations
system.switch_cpus_1.iew.predictedTakenIncorrect      1455903                       # Number of branches that were predicted taken incorrectly
system.switch_cpus_1.iew.predictedNotTakenIncorrect      1031426                       # Number of branches that were predicted not taken incorrectly
system.switch_cpus_1.iew.branchMispredicts      2487329                       # Number of branch mispredicts detected at execute
system.switch_cpus_1.iew.iewExecutedInsts    583865146                       # Number of executed instructions
system.switch_cpus_1.iew.iewExecLoadInsts    174257470                       # Number of load instructions executed
system.switch_cpus_1.iew.iewExecSquashedInsts      5820236                       # Number of squashed instructions skipped in execute
system.switch_cpus_1.iew.exec_swp                   0                       # number of swp insts executed
system.switch_cpus_1.iew.exec_nop             3335332                       # number of nop insts executed
system.switch_cpus_1.iew.exec_refs          256222010                       # number of memory reference insts executed
system.switch_cpus_1.iew.exec_branches       58806991                       # Number of branches executed
system.switch_cpus_1.iew.exec_stores         81964540                       # Number of stores executed
system.switch_cpus_1.iew.exec_rate           1.799491                       # Inst execution rate
system.switch_cpus_1.iew.wb_sent            580902237                       # cumulative count of insts sent to commit
system.switch_cpus_1.iew.wb_count           578901153                       # cumulative count of insts written-back
system.switch_cpus_1.iew.wb_producers       329476901                       # num instructions producing a value
system.switch_cpus_1.iew.wb_consumers       456772839                       # num instructions consuming a value
system.switch_cpus_1.iew.wb_rate             1.784192                       # insts written-back per cycle
system.switch_cpus_1.iew.wb_fanout           0.721315                       # average fanout of values written-back
system.switch_cpus_1.commit.commitSquashedInsts    119821535                       # The number of squashed insts skipped by commit
system.switch_cpus_1.commit.commitNonSpecStalls           96                       # The number of times commit has been forced to stall to communicate backwards
system.switch_cpus_1.commit.branchMispredicts      2413444                       # The number of times a branch was mispredicted
system.switch_cpus_1.commit.committed_per_cycle::samples    308238755                       # Number of insts commited each cycle
system.switch_cpus_1.commit.committed_per_cycle::mean     1.630439                       # Number of insts commited each cycle
system.switch_cpus_1.commit.committed_per_cycle::stdev     2.845782                       # Number of insts commited each cycle
system.switch_cpus_1.commit.committed_per_cycle::underflows            0      0.00%      0.00% # Number of insts commited each cycle
system.switch_cpus_1.commit.committed_per_cycle::0    184936206     60.00%     60.00% # Number of insts commited each cycle
system.switch_cpus_1.commit.committed_per_cycle::1     55680696     18.06%     78.06% # Number of insts commited each cycle
system.switch_cpus_1.commit.committed_per_cycle::2      5417310      1.76%     79.82% # Number of insts commited each cycle
system.switch_cpus_1.commit.committed_per_cycle::3      5506624      1.79%     81.61% # Number of insts commited each cycle
system.switch_cpus_1.commit.committed_per_cycle::4      3847234      1.25%     82.85% # Number of insts commited each cycle
system.switch_cpus_1.commit.committed_per_cycle::5      3028371      0.98%     83.84% # Number of insts commited each cycle
system.switch_cpus_1.commit.committed_per_cycle::6      3280727      1.06%     84.90% # Number of insts commited each cycle
system.switch_cpus_1.commit.committed_per_cycle::7      3018442      0.98%     85.88% # Number of insts commited each cycle
system.switch_cpus_1.commit.committed_per_cycle::8     43523145     14.12%    100.00% # Number of insts commited each cycle
system.switch_cpus_1.commit.committed_per_cycle::overflows            0      0.00%    100.00% # Number of insts commited each cycle
system.switch_cpus_1.commit.committed_per_cycle::min_value            0                       # Number of insts commited each cycle
system.switch_cpus_1.commit.committed_per_cycle::max_value            8                       # Number of insts commited each cycle
system.switch_cpus_1.commit.committed_per_cycle::total    308238755                       # Number of insts commited each cycle
system.switch_cpus_1.commit.committedInsts    502564595                       # Number of instructions committed
system.switch_cpus_1.commit.committedOps    502564595                       # Number of ops (including micro ops) committed
system.switch_cpus_1.commit.swp_count               0                       # Number of s/w prefetches committed
system.switch_cpus_1.commit.refs            216631124                       # Number of memory references committed
system.switch_cpus_1.commit.loads           147717916                       # Number of loads committed
system.switch_cpus_1.commit.membars                48                       # Number of memory barriers committed
system.switch_cpus_1.commit.branches         51496837                       # Number of branches committed
system.switch_cpus_1.commit.fp_insts              480                       # Number of committed floating point instructions.
system.switch_cpus_1.commit.int_insts       499958361                       # Number of committed integer instructions.
system.switch_cpus_1.commit.function_calls      6129765                       # Number of function calls committed.
system.switch_cpus_1.commit.op_class_0::No_OpClass      2564592      0.51%      0.51% # Class of committed instruction
system.switch_cpus_1.commit.op_class_0::IntAlu    269624716     53.65%     54.16% # Class of committed instruction
system.switch_cpus_1.commit.op_class_0::IntMult     13743695      2.73%     56.89% # Class of committed instruction
system.switch_cpus_1.commit.op_class_0::IntDiv            0      0.00%     56.89% # Class of committed instruction
system.switch_cpus_1.commit.op_class_0::FloatAdd          200      0.00%     56.89% # Class of committed instruction
system.switch_cpus_1.commit.op_class_0::FloatCmp            0      0.00%     56.89% # Class of committed instruction
system.switch_cpus_1.commit.op_class_0::FloatCvt          140      0.00%     56.89% # Class of committed instruction
system.switch_cpus_1.commit.op_class_0::FloatMult           80      0.00%     56.89% # Class of committed instruction
system.switch_cpus_1.commit.op_class_0::FloatMultAcc            0      0.00%     56.89% # Class of committed instruction
system.switch_cpus_1.commit.op_class_0::FloatDiv            0      0.00%     56.89% # Class of committed instruction
system.switch_cpus_1.commit.op_class_0::FloatMisc            0      0.00%     56.89% # Class of committed instruction
system.switch_cpus_1.commit.op_class_0::FloatSqrt            0      0.00%     56.89% # Class of committed instruction
system.switch_cpus_1.commit.op_class_0::SimdAdd            0      0.00%     56.89% # Class of committed instruction
system.switch_cpus_1.commit.op_class_0::SimdAddAcc            0      0.00%     56.89% # Class of committed instruction
system.switch_cpus_1.commit.op_class_0::SimdAlu            0      0.00%     56.89% # Class of committed instruction
system.switch_cpus_1.commit.op_class_0::SimdCmp            0      0.00%     56.89% # Class of committed instruction
system.switch_cpus_1.commit.op_class_0::SimdCvt            0      0.00%     56.89% # Class of committed instruction
system.switch_cpus_1.commit.op_class_0::SimdMisc            0      0.00%     56.89% # Class of committed instruction
system.switch_cpus_1.commit.op_class_0::SimdMult            0      0.00%     56.89% # Class of committed instruction
system.switch_cpus_1.commit.op_class_0::SimdMultAcc            0      0.00%     56.89% # Class of committed instruction
system.switch_cpus_1.commit.op_class_0::SimdShift            0      0.00%     56.89% # Class of committed instruction
system.switch_cpus_1.commit.op_class_0::SimdShiftAcc            0      0.00%     56.89% # Class of committed instruction
system.switch_cpus_1.commit.op_class_0::SimdSqrt            0      0.00%     56.89% # Class of committed instruction
system.switch_cpus_1.commit.op_class_0::SimdFloatAdd            0      0.00%     56.89% # Class of committed instruction
system.switch_cpus_1.commit.op_class_0::SimdFloatAlu            0      0.00%     56.89% # Class of committed instruction
system.switch_cpus_1.commit.op_class_0::SimdFloatCmp            0      0.00%     56.89% # Class of committed instruction
system.switch_cpus_1.commit.op_class_0::SimdFloatCvt            0      0.00%     56.89% # Class of committed instruction
system.switch_cpus_1.commit.op_class_0::SimdFloatDiv            0      0.00%     56.89% # Class of committed instruction
system.switch_cpus_1.commit.op_class_0::SimdFloatMisc            0      0.00%     56.89% # Class of committed instruction
system.switch_cpus_1.commit.op_class_0::SimdFloatMult            0      0.00%     56.89% # Class of committed instruction
system.switch_cpus_1.commit.op_class_0::SimdFloatMultAcc            0      0.00%     56.89% # Class of committed instruction
system.switch_cpus_1.commit.op_class_0::SimdFloatSqrt            0      0.00%     56.89% # Class of committed instruction
system.switch_cpus_1.commit.op_class_0::MemRead    147717904     29.39%     86.29% # Class of committed instruction
system.switch_cpus_1.commit.op_class_0::MemWrite     68913208     13.71%    100.00% # Class of committed instruction
system.switch_cpus_1.commit.op_class_0::FloatMemRead           60      0.00%    100.00% # Class of committed instruction
system.switch_cpus_1.commit.op_class_0::FloatMemWrite            0      0.00%    100.00% # Class of committed instruction
system.switch_cpus_1.commit.op_class_0::IprAccess            0      0.00%    100.00% # Class of committed instruction
system.switch_cpus_1.commit.op_class_0::InstPrefetch            0      0.00%    100.00% # Class of committed instruction
system.switch_cpus_1.commit.op_class_0::total    502564595                       # Class of committed instruction
system.switch_cpus_1.commit.bw_lim_events     43523145                       # number cycles where commit BW limit reached
system.switch_cpus_1.rob.rob_reads          884757164                       # The number of ROB reads
system.switch_cpus_1.rob.rob_writes        1260988952                       # The number of ROB writes
system.switch_cpus_1.timesIdled                    36                       # Number of times that the entire CPU went into an idle state and unscheduled itself
system.switch_cpus_1.idleCycles                 12589                       # Total number of cycles that the CPU has spent unscheduled due to idling
system.switch_cpus_1.committedInsts         500000003                       # Number of Instructions Simulated
system.switch_cpus_1.committedOps           500000003                       # Number of Ops (including micro ops) Simulated
system.switch_cpus_1.cpi                     0.648922                       # CPI: Cycles Per Instruction
system.switch_cpus_1.cpi_total               0.648922                       # CPI: Total CPI of All Threads
system.switch_cpus_1.ipc                     1.541016                       # IPC: Instructions Per Cycle
system.switch_cpus_1.ipc_total               1.541016                       # IPC: Total IPC of All Threads
system.switch_cpus_1.int_regfile_reads      850436413                       # number of integer regfile reads
system.switch_cpus_1.int_regfile_writes     447525604                       # number of integer regfile writes
system.switch_cpus_1.fp_regfile_reads             531                       # number of floating regfile reads
system.switch_cpus_1.fp_regfile_writes            559                       # number of floating regfile writes
system.switch_cpus_1.misc_regfile_reads           108                       # number of misc regfile reads
system.switch_cpus_1.misc_regfile_writes           96                       # number of misc regfile writes
system.tol3bus.snoop_filter.tot_requests      6444832                       # Total number of requests made to the snoop filter.
system.tol3bus.snoop_filter.hit_single_requests      3220300                       # Number of requests hitting in the snoop filter with a single holder of the requested data.
system.tol3bus.snoop_filter.hit_multi_requests            0                       # Number of requests hitting in the snoop filter with multiple (>1) holders of the requested data.
system.tol3bus.snoop_filter.tot_snoops              0                       # Total number of snoops made to the snoop filter.
system.tol3bus.snoop_filter.hit_single_snoops            0                       # Number of snoops hitting in the snoop filter with a single holder of the requested data.
system.tol3bus.snoop_filter.hit_multi_snoops            0                       # Number of snoops hitting in the snoop filter with multiple (>1) holders of the requested data.
system.tol3bus.pwrStateResidencyTicks::UNDEFINED 110962289557080                       # Cumulative time (in ticks) in various power states
system.tol3bus.trans_dist::ReadResp           2909928                       # Transaction distribution
system.tol3bus.trans_dist::WritebackDirty      2514175                       # Transaction distribution
system.tol3bus.trans_dist::CleanEvict          706121                       # Transaction distribution
system.tol3bus.trans_dist::UpgradeReq               4                       # Transaction distribution
system.tol3bus.trans_dist::UpgradeResp              4                       # Transaction distribution
system.tol3bus.trans_dist::ReadExReq           314604                       # Transaction distribution
system.tol3bus.trans_dist::ReadExResp          314604                       # Transaction distribution
system.tol3bus.trans_dist::ReadSharedReq      2909928                       # Transaction distribution
system.tol3bus.pkt_count_system.cpu.l2.mem_side::system.l3.cpu_side      9669368                       # Packet count per connected master and slave (bytes)
system.tol3bus.pkt_size_system.cpu.l2.mem_side::system.l3.cpu_side    367277248                       # Cumulative packet size per connected master and slave (bytes)
system.tol3bus.snoops                               0                       # Total snoops (count)
system.tol3bus.snoopTraffic                         0                       # Total snoop traffic (bytes)
system.tol3bus.snoop_fanout::samples          3224536                       # Request fanout histogram
system.tol3bus.snoop_fanout::mean                   0                       # Request fanout histogram
system.tol3bus.snoop_fanout::stdev                  0                       # Request fanout histogram
system.tol3bus.snoop_fanout::underflows             0      0.00%      0.00% # Request fanout histogram
system.tol3bus.snoop_fanout::0                3224536    100.00%    100.00% # Request fanout histogram
system.tol3bus.snoop_fanout::1                      0      0.00%    100.00% # Request fanout histogram
system.tol3bus.snoop_fanout::overflows              0      0.00%    100.00% # Request fanout histogram
system.tol3bus.snoop_fanout::min_value              0                       # Request fanout histogram
system.tol3bus.snoop_fanout::max_value              0                       # Request fanout histogram
system.tol3bus.snoop_fanout::total            3224536                       # Request fanout histogram
system.tol3bus.reqLayer0.occupancy         2983349331                       # Layer occupancy (ticks)
system.tol3bus.reqLayer0.utilization              0.2                       # Layer utilization (%)
system.tol3bus.respLayer0.occupancy        2147539644                       # Layer occupancy (ticks)
system.tol3bus.respLayer0.utilization             0.2                       # Layer utilization (%)

---------- End Simulation Statistics   ----------
