
---------- Begin Simulation Statistics ----------
sim_seconds                                  3.271549                       # Number of seconds simulated
sim_ticks                                3271548789387                       # Number of ticks simulated
final_tick                               303641769544074                       # Number of ticks from beginning of simulation (restored from checkpoints and never reset)
sim_freq                                 1000000000000                       # Frequency of simulated ticks
host_inst_rate                                 120866                       # Simulator instruction rate (inst/s)
host_op_rate                                   120866                       # Simulator op (including micro ops) rate (op/s)
host_tick_rate                              329514714                       # Simulator tick rate (ticks/s)
host_mem_usage                                2406576                       # Number of bytes of host memory used
host_seconds                                  9928.38                       # Real time elapsed on the host
sim_insts                                  1200000007                       # Number of instructions simulated
sim_ops                                    1200000007                       # Number of ops (including micro ops) simulated
system.voltage_domain.voltage                       1                       # Voltage in Volts
system.clk_domain.clock                          1000                       # Clock period in ticks
system.mem_ctrls0.pwrStateResidencyTicks::UNDEFINED 303641769544074                       # Cumulative time (in ticks) in various power states
system.mem_ctrls0.bytes_read::cpu.inst             64                       # Number of bytes read from this memory
system.mem_ctrls0.bytes_read::cpu.data             64                       # Number of bytes read from this memory
system.mem_ctrls0.bytes_read::switch_cpus.inst         3136                       # Number of bytes read from this memory
system.mem_ctrls0.bytes_read::switch_cpus.data    284990528                       # Number of bytes read from this memory
system.mem_ctrls0.bytes_read::switch_cpus_1.inst          768                       # Number of bytes read from this memory
system.mem_ctrls0.bytes_read::switch_cpus_1.data     62063488                       # Number of bytes read from this memory
system.mem_ctrls0.bytes_read::total         347058048                       # Number of bytes read from this memory
system.mem_ctrls0.bytes_inst_read::cpu.inst           64                       # Number of instructions bytes read from this memory
system.mem_ctrls0.bytes_inst_read::switch_cpus.inst         3136                       # Number of instructions bytes read from this memory
system.mem_ctrls0.bytes_inst_read::switch_cpus_1.inst          768                       # Number of instructions bytes read from this memory
system.mem_ctrls0.bytes_inst_read::total         3968                       # Number of instructions bytes read from this memory
system.mem_ctrls0.bytes_written::writebacks    162141312                       # Number of bytes written to this memory
system.mem_ctrls0.bytes_written::total      162141312                       # Number of bytes written to this memory
system.mem_ctrls0.num_reads::cpu.inst               1                       # Number of read requests responded to by this memory
system.mem_ctrls0.num_reads::cpu.data               1                       # Number of read requests responded to by this memory
system.mem_ctrls0.num_reads::switch_cpus.inst           49                       # Number of read requests responded to by this memory
system.mem_ctrls0.num_reads::switch_cpus.data      4452977                       # Number of read requests responded to by this memory
system.mem_ctrls0.num_reads::switch_cpus_1.inst           12                       # Number of read requests responded to by this memory
system.mem_ctrls0.num_reads::switch_cpus_1.data       969742                       # Number of read requests responded to by this memory
system.mem_ctrls0.num_reads::total            5422782                       # Number of read requests responded to by this memory
system.mem_ctrls0.num_writes::writebacks      2533458                       # Number of write requests responded to by this memory
system.mem_ctrls0.num_writes::total           2533458                       # Number of write requests responded to by this memory
system.mem_ctrls0.bw_read::cpu.inst                20                       # Total read bandwidth from this memory (bytes/s)
system.mem_ctrls0.bw_read::cpu.data                20                       # Total read bandwidth from this memory (bytes/s)
system.mem_ctrls0.bw_read::switch_cpus.inst          959                       # Total read bandwidth from this memory (bytes/s)
system.mem_ctrls0.bw_read::switch_cpus.data     87111807                       # Total read bandwidth from this memory (bytes/s)
system.mem_ctrls0.bw_read::switch_cpus_1.inst          235                       # Total read bandwidth from this memory (bytes/s)
system.mem_ctrls0.bw_read::switch_cpus_1.data     18970675                       # Total read bandwidth from this memory (bytes/s)
system.mem_ctrls0.bw_read::total            106083715                       # Total read bandwidth from this memory (bytes/s)
system.mem_ctrls0.bw_inst_read::cpu.inst           20                       # Instruction read bandwidth from this memory (bytes/s)
system.mem_ctrls0.bw_inst_read::switch_cpus.inst          959                       # Instruction read bandwidth from this memory (bytes/s)
system.mem_ctrls0.bw_inst_read::switch_cpus_1.inst          235                       # Instruction read bandwidth from this memory (bytes/s)
system.mem_ctrls0.bw_inst_read::total            1213                       # Instruction read bandwidth from this memory (bytes/s)
system.mem_ctrls0.bw_write::writebacks       49561025                       # Write bandwidth from this memory (bytes/s)
system.mem_ctrls0.bw_write::total            49561025                       # Write bandwidth from this memory (bytes/s)
system.mem_ctrls0.bw_total::writebacks       49561025                       # Total bandwidth to/from this memory (bytes/s)
system.mem_ctrls0.bw_total::cpu.inst               20                       # Total bandwidth to/from this memory (bytes/s)
system.mem_ctrls0.bw_total::cpu.data               20                       # Total bandwidth to/from this memory (bytes/s)
system.mem_ctrls0.bw_total::switch_cpus.inst          959                       # Total bandwidth to/from this memory (bytes/s)
system.mem_ctrls0.bw_total::switch_cpus.data     87111807                       # Total bandwidth to/from this memory (bytes/s)
system.mem_ctrls0.bw_total::switch_cpus_1.inst          235                       # Total bandwidth to/from this memory (bytes/s)
system.mem_ctrls0.bw_total::switch_cpus_1.data     18970675                       # Total bandwidth to/from this memory (bytes/s)
system.mem_ctrls0.bw_total::total           155644740                       # Total bandwidth to/from this memory (bytes/s)
system.mem_ctrls0.readReqs                    5422782                       # Number of read requests accepted
system.mem_ctrls0.writeReqs                   2533458                       # Number of write requests accepted
system.mem_ctrls0.readBursts                  5422782                       # Number of DRAM read bursts, including those serviced by the write queue
system.mem_ctrls0.writeBursts                 2533458                       # Number of DRAM write bursts, including those merged in the write queue
system.mem_ctrls0.bytesReadDRAM             344526080                       # Total number of bytes read from DRAM
system.mem_ctrls0.bytesReadWrQ                2531968                       # Total number of bytes read from write queue
system.mem_ctrls0.bytesWritten              162139648                       # Total number of bytes written to DRAM
system.mem_ctrls0.bytesReadSys              347058048                       # Total read bytes from the system interface side
system.mem_ctrls0.bytesWrittenSys           162141312                       # Total written bytes from the system interface side
system.mem_ctrls0.servicedByWrQ                 39562                       # Number of DRAM read bursts serviced by the write queue
system.mem_ctrls0.mergedWrBursts                    0                       # Number of DRAM write bursts merged with an existing one
system.mem_ctrls0.neitherReadNorWriteReqs            0                       # Number of requests that are neither read nor write
system.mem_ctrls0.perBankRdBursts::0           348956                       # Per bank write bursts
system.mem_ctrls0.perBankRdBursts::1           295432                       # Per bank write bursts
system.mem_ctrls0.perBankRdBursts::2           367798                       # Per bank write bursts
system.mem_ctrls0.perBankRdBursts::3           257027                       # Per bank write bursts
system.mem_ctrls0.perBankRdBursts::4           309126                       # Per bank write bursts
system.mem_ctrls0.perBankRdBursts::5           346973                       # Per bank write bursts
system.mem_ctrls0.perBankRdBursts::6           330465                       # Per bank write bursts
system.mem_ctrls0.perBankRdBursts::7           460826                       # Per bank write bursts
system.mem_ctrls0.perBankRdBursts::8           369307                       # Per bank write bursts
system.mem_ctrls0.perBankRdBursts::9           284592                       # Per bank write bursts
system.mem_ctrls0.perBankRdBursts::10          368245                       # Per bank write bursts
system.mem_ctrls0.perBankRdBursts::11          262135                       # Per bank write bursts
system.mem_ctrls0.perBankRdBursts::12          281665                       # Per bank write bursts
system.mem_ctrls0.perBankRdBursts::13          322244                       # Per bank write bursts
system.mem_ctrls0.perBankRdBursts::14          318574                       # Per bank write bursts
system.mem_ctrls0.perBankRdBursts::15          459855                       # Per bank write bursts
system.mem_ctrls0.perBankWrBursts::0           167294                       # Per bank write bursts
system.mem_ctrls0.perBankWrBursts::1           133934                       # Per bank write bursts
system.mem_ctrls0.perBankWrBursts::2           175651                       # Per bank write bursts
system.mem_ctrls0.perBankWrBursts::3           120379                       # Per bank write bursts
system.mem_ctrls0.perBankWrBursts::4           146195                       # Per bank write bursts
system.mem_ctrls0.perBankWrBursts::5           157072                       # Per bank write bursts
system.mem_ctrls0.perBankWrBursts::6           142958                       # Per bank write bursts
system.mem_ctrls0.perBankWrBursts::7           209779                       # Per bank write bursts
system.mem_ctrls0.perBankWrBursts::8           176473                       # Per bank write bursts
system.mem_ctrls0.perBankWrBursts::9           128497                       # Per bank write bursts
system.mem_ctrls0.perBankWrBursts::10          172235                       # Per bank write bursts
system.mem_ctrls0.perBankWrBursts::11          125143                       # Per bank write bursts
system.mem_ctrls0.perBankWrBursts::12          140547                       # Per bank write bursts
system.mem_ctrls0.perBankWrBursts::13          160670                       # Per bank write bursts
system.mem_ctrls0.perBankWrBursts::14          156589                       # Per bank write bursts
system.mem_ctrls0.perBankWrBursts::15          220016                       # Per bank write bursts
system.mem_ctrls0.numRdRetry                        0                       # Number of times read queue was full causing retry
system.mem_ctrls0.numWrRetry                        0                       # Number of times write queue was full causing retry
system.mem_ctrls0.totGap                 3271548559284                       # Total gap between requests
system.mem_ctrls0.readPktSize::0                    0                       # Read request sizes (log2)
system.mem_ctrls0.readPktSize::1                    0                       # Read request sizes (log2)
system.mem_ctrls0.readPktSize::2                    0                       # Read request sizes (log2)
system.mem_ctrls0.readPktSize::3                    0                       # Read request sizes (log2)
system.mem_ctrls0.readPktSize::4                    0                       # Read request sizes (log2)
system.mem_ctrls0.readPktSize::5                    0                       # Read request sizes (log2)
system.mem_ctrls0.readPktSize::6              5422782                       # Read request sizes (log2)
system.mem_ctrls0.writePktSize::0                   0                       # Write request sizes (log2)
system.mem_ctrls0.writePktSize::1                   0                       # Write request sizes (log2)
system.mem_ctrls0.writePktSize::2                   0                       # Write request sizes (log2)
system.mem_ctrls0.writePktSize::3                   0                       # Write request sizes (log2)
system.mem_ctrls0.writePktSize::4                   0                       # Write request sizes (log2)
system.mem_ctrls0.writePktSize::5                   0                       # Write request sizes (log2)
system.mem_ctrls0.writePktSize::6             2533458                       # Write request sizes (log2)
system.mem_ctrls0.rdQLenPdf::0                5288539                       # What read queue length does an incoming req see
system.mem_ctrls0.rdQLenPdf::1                  87221                       # What read queue length does an incoming req see
system.mem_ctrls0.rdQLenPdf::2                   6933                       # What read queue length does an incoming req see
system.mem_ctrls0.rdQLenPdf::3                    527                       # What read queue length does an incoming req see
system.mem_ctrls0.rdQLenPdf::4                      0                       # What read queue length does an incoming req see
system.mem_ctrls0.rdQLenPdf::5                      0                       # What read queue length does an incoming req see
system.mem_ctrls0.rdQLenPdf::6                      0                       # What read queue length does an incoming req see
system.mem_ctrls0.rdQLenPdf::7                      0                       # What read queue length does an incoming req see
system.mem_ctrls0.rdQLenPdf::8                      0                       # What read queue length does an incoming req see
system.mem_ctrls0.rdQLenPdf::9                      0                       # What read queue length does an incoming req see
system.mem_ctrls0.rdQLenPdf::10                     0                       # What read queue length does an incoming req see
system.mem_ctrls0.rdQLenPdf::11                     0                       # What read queue length does an incoming req see
system.mem_ctrls0.rdQLenPdf::12                     0                       # What read queue length does an incoming req see
system.mem_ctrls0.rdQLenPdf::13                     0                       # What read queue length does an incoming req see
system.mem_ctrls0.rdQLenPdf::14                     0                       # What read queue length does an incoming req see
system.mem_ctrls0.rdQLenPdf::15                     0                       # What read queue length does an incoming req see
system.mem_ctrls0.rdQLenPdf::16                     0                       # What read queue length does an incoming req see
system.mem_ctrls0.rdQLenPdf::17                     0                       # What read queue length does an incoming req see
system.mem_ctrls0.rdQLenPdf::18                     0                       # What read queue length does an incoming req see
system.mem_ctrls0.rdQLenPdf::19                     0                       # What read queue length does an incoming req see
system.mem_ctrls0.rdQLenPdf::20                     0                       # What read queue length does an incoming req see
system.mem_ctrls0.rdQLenPdf::21                     0                       # What read queue length does an incoming req see
system.mem_ctrls0.rdQLenPdf::22                     0                       # What read queue length does an incoming req see
system.mem_ctrls0.rdQLenPdf::23                     0                       # What read queue length does an incoming req see
system.mem_ctrls0.rdQLenPdf::24                     0                       # What read queue length does an incoming req see
system.mem_ctrls0.rdQLenPdf::25                     0                       # What read queue length does an incoming req see
system.mem_ctrls0.rdQLenPdf::26                     0                       # What read queue length does an incoming req see
system.mem_ctrls0.rdQLenPdf::27                     0                       # What read queue length does an incoming req see
system.mem_ctrls0.rdQLenPdf::28                     0                       # What read queue length does an incoming req see
system.mem_ctrls0.rdQLenPdf::29                     0                       # What read queue length does an incoming req see
system.mem_ctrls0.rdQLenPdf::30                     0                       # What read queue length does an incoming req see
system.mem_ctrls0.rdQLenPdf::31                     0                       # What read queue length does an incoming req see
system.mem_ctrls0.wrQLenPdf::0                      2                       # What write queue length does an incoming req see
system.mem_ctrls0.wrQLenPdf::1                      2                       # What write queue length does an incoming req see
system.mem_ctrls0.wrQLenPdf::2                      2                       # What write queue length does an incoming req see
system.mem_ctrls0.wrQLenPdf::3                      2                       # What write queue length does an incoming req see
system.mem_ctrls0.wrQLenPdf::4                      2                       # What write queue length does an incoming req see
system.mem_ctrls0.wrQLenPdf::5                      2                       # What write queue length does an incoming req see
system.mem_ctrls0.wrQLenPdf::6                      2                       # What write queue length does an incoming req see
system.mem_ctrls0.wrQLenPdf::7                      2                       # What write queue length does an incoming req see
system.mem_ctrls0.wrQLenPdf::8                      2                       # What write queue length does an incoming req see
system.mem_ctrls0.wrQLenPdf::9                      2                       # What write queue length does an incoming req see
system.mem_ctrls0.wrQLenPdf::10                     2                       # What write queue length does an incoming req see
system.mem_ctrls0.wrQLenPdf::11                     2                       # What write queue length does an incoming req see
system.mem_ctrls0.wrQLenPdf::12                     2                       # What write queue length does an incoming req see
system.mem_ctrls0.wrQLenPdf::13                     2                       # What write queue length does an incoming req see
system.mem_ctrls0.wrQLenPdf::14                     2                       # What write queue length does an incoming req see
system.mem_ctrls0.wrQLenPdf::15                121989                       # What write queue length does an incoming req see
system.mem_ctrls0.wrQLenPdf::16                124311                       # What write queue length does an incoming req see
system.mem_ctrls0.wrQLenPdf::17                142359                       # What write queue length does an incoming req see
system.mem_ctrls0.wrQLenPdf::18                143015                       # What write queue length does an incoming req see
system.mem_ctrls0.wrQLenPdf::19                143051                       # What write queue length does an incoming req see
system.mem_ctrls0.wrQLenPdf::20                143018                       # What write queue length does an incoming req see
system.mem_ctrls0.wrQLenPdf::21                142987                       # What write queue length does an incoming req see
system.mem_ctrls0.wrQLenPdf::22                142980                       # What write queue length does an incoming req see
system.mem_ctrls0.wrQLenPdf::23                143005                       # What write queue length does an incoming req see
system.mem_ctrls0.wrQLenPdf::24                142986                       # What write queue length does an incoming req see
system.mem_ctrls0.wrQLenPdf::25                143041                       # What write queue length does an incoming req see
system.mem_ctrls0.wrQLenPdf::26                143235                       # What write queue length does an incoming req see
system.mem_ctrls0.wrQLenPdf::27                142925                       # What write queue length does an incoming req see
system.mem_ctrls0.wrQLenPdf::28                142904                       # What write queue length does an incoming req see
system.mem_ctrls0.wrQLenPdf::29                143026                       # What write queue length does an incoming req see
system.mem_ctrls0.wrQLenPdf::30                143112                       # What write queue length does an incoming req see
system.mem_ctrls0.wrQLenPdf::31                142733                       # What write queue length does an incoming req see
system.mem_ctrls0.wrQLenPdf::32                142725                       # What write queue length does an incoming req see
system.mem_ctrls0.wrQLenPdf::33                    25                       # What write queue length does an incoming req see
system.mem_ctrls0.wrQLenPdf::34                     1                       # What write queue length does an incoming req see
system.mem_ctrls0.wrQLenPdf::35                     0                       # What write queue length does an incoming req see
system.mem_ctrls0.wrQLenPdf::36                     0                       # What write queue length does an incoming req see
system.mem_ctrls0.wrQLenPdf::37                     0                       # What write queue length does an incoming req see
system.mem_ctrls0.wrQLenPdf::38                     0                       # What write queue length does an incoming req see
system.mem_ctrls0.wrQLenPdf::39                     0                       # What write queue length does an incoming req see
system.mem_ctrls0.wrQLenPdf::40                     0                       # What write queue length does an incoming req see
system.mem_ctrls0.wrQLenPdf::41                     0                       # What write queue length does an incoming req see
system.mem_ctrls0.wrQLenPdf::42                     0                       # What write queue length does an incoming req see
system.mem_ctrls0.wrQLenPdf::43                     0                       # What write queue length does an incoming req see
system.mem_ctrls0.wrQLenPdf::44                     0                       # What write queue length does an incoming req see
system.mem_ctrls0.wrQLenPdf::45                     0                       # What write queue length does an incoming req see
system.mem_ctrls0.wrQLenPdf::46                     0                       # What write queue length does an incoming req see
system.mem_ctrls0.wrQLenPdf::47                     0                       # What write queue length does an incoming req see
system.mem_ctrls0.wrQLenPdf::48                     0                       # What write queue length does an incoming req see
system.mem_ctrls0.wrQLenPdf::49                     0                       # What write queue length does an incoming req see
system.mem_ctrls0.wrQLenPdf::50                     0                       # What write queue length does an incoming req see
system.mem_ctrls0.wrQLenPdf::51                     0                       # What write queue length does an incoming req see
system.mem_ctrls0.wrQLenPdf::52                     0                       # What write queue length does an incoming req see
system.mem_ctrls0.wrQLenPdf::53                     0                       # What write queue length does an incoming req see
system.mem_ctrls0.wrQLenPdf::54                     0                       # What write queue length does an incoming req see
system.mem_ctrls0.wrQLenPdf::55                     0                       # What write queue length does an incoming req see
system.mem_ctrls0.wrQLenPdf::56                     0                       # What write queue length does an incoming req see
system.mem_ctrls0.wrQLenPdf::57                     0                       # What write queue length does an incoming req see
system.mem_ctrls0.wrQLenPdf::58                     0                       # What write queue length does an incoming req see
system.mem_ctrls0.wrQLenPdf::59                     0                       # What write queue length does an incoming req see
system.mem_ctrls0.wrQLenPdf::60                     0                       # What write queue length does an incoming req see
system.mem_ctrls0.wrQLenPdf::61                     0                       # What write queue length does an incoming req see
system.mem_ctrls0.wrQLenPdf::62                     0                       # What write queue length does an incoming req see
system.mem_ctrls0.wrQLenPdf::63                     0                       # What write queue length does an incoming req see
system.mem_ctrls0.bytesPerActivate::samples      7025785                       # Bytes accessed per row activation
system.mem_ctrls0.bytesPerActivate::mean    72.115131                       # Bytes accessed per row activation
system.mem_ctrls0.bytesPerActivate::gmean    69.166547                       # Bytes accessed per row activation
system.mem_ctrls0.bytesPerActivate::stdev    29.030338                       # Bytes accessed per row activation
system.mem_ctrls0.bytesPerActivate::0-127      6347139     90.34%     90.34% # Bytes accessed per row activation
system.mem_ctrls0.bytesPerActivate::128-255       635206      9.04%     99.38% # Bytes accessed per row activation
system.mem_ctrls0.bytesPerActivate::256-383        36634      0.52%     99.90% # Bytes accessed per row activation
system.mem_ctrls0.bytesPerActivate::384-511         5577      0.08%     99.98% # Bytes accessed per row activation
system.mem_ctrls0.bytesPerActivate::512-639          951      0.01%    100.00% # Bytes accessed per row activation
system.mem_ctrls0.bytesPerActivate::640-767          229      0.00%    100.00% # Bytes accessed per row activation
system.mem_ctrls0.bytesPerActivate::768-895           40      0.00%    100.00% # Bytes accessed per row activation
system.mem_ctrls0.bytesPerActivate::896-1023            8      0.00%    100.00% # Bytes accessed per row activation
system.mem_ctrls0.bytesPerActivate::1024-1151            1      0.00%    100.00% # Bytes accessed per row activation
system.mem_ctrls0.bytesPerActivate::total      7025785                       # Bytes accessed per row activation
system.mem_ctrls0.rdPerTurnAround::samples       142723                       # Reads before turning the bus around for writes
system.mem_ctrls0.rdPerTurnAround::mean     37.717761                       # Reads before turning the bus around for writes
system.mem_ctrls0.rdPerTurnAround::gmean    34.304996                       # Reads before turning the bus around for writes
system.mem_ctrls0.rdPerTurnAround::stdev    64.694796                       # Reads before turning the bus around for writes
system.mem_ctrls0.rdPerTurnAround::0-1023       142722    100.00%    100.00% # Reads before turning the bus around for writes
system.mem_ctrls0.rdPerTurnAround::22528-23551            1      0.00%    100.00% # Reads before turning the bus around for writes
system.mem_ctrls0.rdPerTurnAround::total       142723                       # Reads before turning the bus around for writes
system.mem_ctrls0.wrPerTurnAround::samples       142723                       # Writes before turning the bus around for reads
system.mem_ctrls0.wrPerTurnAround::mean     17.750692                       # Writes before turning the bus around for reads
system.mem_ctrls0.wrPerTurnAround::gmean    17.735845                       # Writes before turning the bus around for reads
system.mem_ctrls0.wrPerTurnAround::stdev     0.708018                       # Writes before turning the bus around for reads
system.mem_ctrls0.wrPerTurnAround::16           18602     13.03%     13.03% # Writes before turning the bus around for reads
system.mem_ctrls0.wrPerTurnAround::17            2017      1.41%     14.45% # Writes before turning the bus around for reads
system.mem_ctrls0.wrPerTurnAround::18          118632     83.12%     97.57% # Writes before turning the bus around for reads
system.mem_ctrls0.wrPerTurnAround::19            3313      2.32%     99.89% # Writes before turning the bus around for reads
system.mem_ctrls0.wrPerTurnAround::20             152      0.11%    100.00% # Writes before turning the bus around for reads
system.mem_ctrls0.wrPerTurnAround::21               6      0.00%    100.00% # Writes before turning the bus around for reads
system.mem_ctrls0.wrPerTurnAround::22               1      0.00%    100.00% # Writes before turning the bus around for reads
system.mem_ctrls0.wrPerTurnAround::total       142723                       # Writes before turning the bus around for reads
system.mem_ctrls0.totQLat                145324825735                       # Total ticks spent queuing
system.mem_ctrls0.totMemAccLat           246260200735                       # Total ticks spent from burst creation until serviced by the DRAM
system.mem_ctrls0.totBusLat               26916100000                       # Total ticks spent in databus transfers
system.mem_ctrls0.avgQLat                    26995.89                       # Average queueing delay per DRAM burst
system.mem_ctrls0.avgBusLat                   5000.00                       # Average bus latency per DRAM burst
system.mem_ctrls0.avgMemAccLat               45745.89                       # Average memory access latency per DRAM burst
system.mem_ctrls0.avgRdBW                      105.31                       # Average DRAM read bandwidth in MiByte/s
system.mem_ctrls0.avgWrBW                       49.56                       # Average achieved write bandwidth in MiByte/s
system.mem_ctrls0.avgRdBWSys                   106.08                       # Average system read bandwidth in MiByte/s
system.mem_ctrls0.avgWrBWSys                    49.56                       # Average system write bandwidth in MiByte/s
system.mem_ctrls0.peakBW                     12800.00                       # Theoretical peak bandwidth in MiByte/s
system.mem_ctrls0.busUtil                        1.21                       # Data bus utilization in percentage
system.mem_ctrls0.busUtilRead                    0.82                       # Data bus utilization in percentage for reads
system.mem_ctrls0.busUtilWrite                   0.39                       # Data bus utilization in percentage for writes
system.mem_ctrls0.avgRdQLen                      1.01                       # Average read queue length when enqueuing
system.mem_ctrls0.avgWrQLen                     24.56                       # Average write queue length when enqueuing
system.mem_ctrls0.readRowHits                  862491                       # Number of row buffer hits during reads
system.mem_ctrls0.writeRowHits                  28371                       # Number of row buffer hits during writes
system.mem_ctrls0.readRowHitRate                16.02                       # Row buffer hit rate for reads
system.mem_ctrls0.writeRowHitRate                1.12                       # Row buffer hit rate for writes
system.mem_ctrls0.avgGap                    411192.79                       # Average gap between requests
system.mem_ctrls0.pageHitRate                   11.25                       # Row buffer hit rate, read and write combined
system.mem_ctrls0_0.actEnergy             25074973140                       # Energy for activate commands per rank (pJ)
system.mem_ctrls0_0.preEnergy             13327652910                       # Energy for precharge commands per rank (pJ)
system.mem_ctrls0_0.readEnergy            19396545420                       # Energy for read commands per rank (pJ)
system.mem_ctrls0_0.writeEnergy            6542027640                       # Energy for write commands per rank (pJ)
system.mem_ctrls0_0.refreshEnergy        259715517360.000061                       # Energy for refresh commands per rank (pJ)
system.mem_ctrls0_0.actBackEnergy        164334001620                       # Energy for active background per rank (pJ)
system.mem_ctrls0_0.preBackEnergy          6075459360                       # Energy for precharge background per rank (pJ)
system.mem_ctrls0_0.actPowerDownEnergy   1102045730910                       # Energy for active power-down per rank (pJ)
system.mem_ctrls0_0.prePowerDownEnergy   177077884800                       # Energy for precharge power-down per rank (pJ)
system.mem_ctrls0_0.selfRefreshEnergy      6933031680                       # Energy for self refresh per rank (pJ)
system.mem_ctrls0_0.totalEnergy          1780555765860                       # Total energy per rank (pJ)
system.mem_ctrls0_0.averagePower           544.254686                       # Core power per rank (mW)
system.mem_ctrls0_0.totalIdleTime        2895258821949                       # Total Idle time Per DRAM Rank
system.mem_ctrls0_0.memoryStateTime::IDLE   3755356303                       # Time in different power states
system.mem_ctrls0_0.memoryStateTime::REF 109895536000                       # Time in different power states
system.mem_ctrls0_0.memoryStateTime::SREF  17365116606                       # Time in different power states
system.mem_ctrls0_0.memoryStateTime::PRE_PDN 461137824273                       # Time in different power states
system.mem_ctrls0_0.memoryStateTime::ACT 262637742674                       # Time in different power states
system.mem_ctrls0_0.memoryStateTime::ACT_PDN 2416757213531                       # Time in different power states
system.mem_ctrls0_1.actEnergy             25089167460                       # Energy for activate commands per rank (pJ)
system.mem_ctrls0_1.preEnergy             13335201165                       # Energy for precharge commands per rank (pJ)
system.mem_ctrls0_1.readEnergy            19039645380                       # Energy for read commands per rank (pJ)
system.mem_ctrls0_1.writeEnergy            6682487400                       # Energy for write commands per rank (pJ)
system.mem_ctrls0_1.refreshEnergy        259720434480.000061                       # Energy for refresh commands per rank (pJ)
system.mem_ctrls0_1.actBackEnergy        163563619830                       # Energy for active background per rank (pJ)
system.mem_ctrls0_1.preBackEnergy          6086884800                       # Energy for precharge background per rank (pJ)
system.mem_ctrls0_1.actPowerDownEnergy   1100878649640                       # Energy for active power-down per rank (pJ)
system.mem_ctrls0_1.prePowerDownEnergy   178702500000                       # Energy for precharge power-down per rank (pJ)
system.mem_ctrls0_1.selfRefreshEnergy      6933005820                       # Energy for self refresh per rank (pJ)
system.mem_ctrls0_1.totalEnergy          1780060597335                       # Total energy per rank (pJ)
system.mem_ctrls0_1.averagePower           544.103330                       # Core power per rank (mW)
system.mem_ctrls0_1.totalIdleTime        2896937867335                       # Total Idle time Per DRAM Rank
system.mem_ctrls0_1.memoryStateTime::IDLE   3759970435                       # Time in different power states
system.mem_ctrls0_1.memoryStateTime::REF 109898102000                       # Time in different power states
system.mem_ctrls0_1.memoryStateTime::SREF  17362225421                       # Time in different power states
system.mem_ctrls0_1.memoryStateTime::PRE_PDN 465369668621                       # Time in different power states
system.mem_ctrls0_1.memoryStateTime::ACT 260952542893                       # Time in different power states
system.mem_ctrls0_1.memoryStateTime::ACT_PDN 2414206280017                       # Time in different power states
system.mem_ctrls1.pwrStateResidencyTicks::UNDEFINED 303641769544074                       # Cumulative time (in ticks) in various power states
system.mem_ctrls1.bytes_read::cpu.inst             64                       # Number of bytes read from this memory
system.mem_ctrls1.bytes_read::cpu.data            128                       # Number of bytes read from this memory
system.mem_ctrls1.bytes_read::switch_cpus.inst         3904                       # Number of bytes read from this memory
system.mem_ctrls1.bytes_read::switch_cpus.data    285785664                       # Number of bytes read from this memory
system.mem_ctrls1.bytes_read::switch_cpus_1.inst          832                       # Number of bytes read from this memory
system.mem_ctrls1.bytes_read::switch_cpus_1.data     62100480                       # Number of bytes read from this memory
system.mem_ctrls1.bytes_read::total         347891072                       # Number of bytes read from this memory
system.mem_ctrls1.bytes_inst_read::cpu.inst           64                       # Number of instructions bytes read from this memory
system.mem_ctrls1.bytes_inst_read::switch_cpus.inst         3904                       # Number of instructions bytes read from this memory
system.mem_ctrls1.bytes_inst_read::switch_cpus_1.inst          832                       # Number of instructions bytes read from this memory
system.mem_ctrls1.bytes_inst_read::total         4800                       # Number of instructions bytes read from this memory
system.mem_ctrls1.bytes_written::writebacks    161766336                       # Number of bytes written to this memory
system.mem_ctrls1.bytes_written::total      161766336                       # Number of bytes written to this memory
system.mem_ctrls1.num_reads::cpu.inst               1                       # Number of read requests responded to by this memory
system.mem_ctrls1.num_reads::cpu.data               2                       # Number of read requests responded to by this memory
system.mem_ctrls1.num_reads::switch_cpus.inst           61                       # Number of read requests responded to by this memory
system.mem_ctrls1.num_reads::switch_cpus.data      4465401                       # Number of read requests responded to by this memory
system.mem_ctrls1.num_reads::switch_cpus_1.inst           13                       # Number of read requests responded to by this memory
system.mem_ctrls1.num_reads::switch_cpus_1.data       970320                       # Number of read requests responded to by this memory
system.mem_ctrls1.num_reads::total            5435798                       # Number of read requests responded to by this memory
system.mem_ctrls1.num_writes::writebacks      2527599                       # Number of write requests responded to by this memory
system.mem_ctrls1.num_writes::total           2527599                       # Number of write requests responded to by this memory
system.mem_ctrls1.bw_read::cpu.inst                20                       # Total read bandwidth from this memory (bytes/s)
system.mem_ctrls1.bw_read::cpu.data                39                       # Total read bandwidth from this memory (bytes/s)
system.mem_ctrls1.bw_read::switch_cpus.inst         1193                       # Total read bandwidth from this memory (bytes/s)
system.mem_ctrls1.bw_read::switch_cpus.data     87354853                       # Total read bandwidth from this memory (bytes/s)
system.mem_ctrls1.bw_read::switch_cpus_1.inst          254                       # Total read bandwidth from this memory (bytes/s)
system.mem_ctrls1.bw_read::switch_cpus_1.data     18981982                       # Total read bandwidth from this memory (bytes/s)
system.mem_ctrls1.bw_read::total            106338341                       # Total read bandwidth from this memory (bytes/s)
system.mem_ctrls1.bw_inst_read::cpu.inst           20                       # Instruction read bandwidth from this memory (bytes/s)
system.mem_ctrls1.bw_inst_read::switch_cpus.inst         1193                       # Instruction read bandwidth from this memory (bytes/s)
system.mem_ctrls1.bw_inst_read::switch_cpus_1.inst          254                       # Instruction read bandwidth from this memory (bytes/s)
system.mem_ctrls1.bw_inst_read::total            1467                       # Instruction read bandwidth from this memory (bytes/s)
system.mem_ctrls1.bw_write::writebacks       49446408                       # Write bandwidth from this memory (bytes/s)
system.mem_ctrls1.bw_write::total            49446408                       # Write bandwidth from this memory (bytes/s)
system.mem_ctrls1.bw_total::writebacks       49446408                       # Total bandwidth to/from this memory (bytes/s)
system.mem_ctrls1.bw_total::cpu.inst               20                       # Total bandwidth to/from this memory (bytes/s)
system.mem_ctrls1.bw_total::cpu.data               39                       # Total bandwidth to/from this memory (bytes/s)
system.mem_ctrls1.bw_total::switch_cpus.inst         1193                       # Total bandwidth to/from this memory (bytes/s)
system.mem_ctrls1.bw_total::switch_cpus.data     87354853                       # Total bandwidth to/from this memory (bytes/s)
system.mem_ctrls1.bw_total::switch_cpus_1.inst          254                       # Total bandwidth to/from this memory (bytes/s)
system.mem_ctrls1.bw_total::switch_cpus_1.data     18981982                       # Total bandwidth to/from this memory (bytes/s)
system.mem_ctrls1.bw_total::total           155784749                       # Total bandwidth to/from this memory (bytes/s)
system.mem_ctrls1.readReqs                    5435798                       # Number of read requests accepted
system.mem_ctrls1.writeReqs                   2527599                       # Number of write requests accepted
system.mem_ctrls1.readBursts                  5435798                       # Number of DRAM read bursts, including those serviced by the write queue
system.mem_ctrls1.writeBursts                 2527599                       # Number of DRAM write bursts, including those merged in the write queue
system.mem_ctrls1.bytesReadDRAM             345345024                       # Total number of bytes read from DRAM
system.mem_ctrls1.bytesReadWrQ                2546048                       # Total number of bytes read from write queue
system.mem_ctrls1.bytesWritten              161764608                       # Total number of bytes written to DRAM
system.mem_ctrls1.bytesReadSys              347891072                       # Total read bytes from the system interface side
system.mem_ctrls1.bytesWrittenSys           161766336                       # Total written bytes from the system interface side
system.mem_ctrls1.servicedByWrQ                 39782                       # Number of DRAM read bursts serviced by the write queue
system.mem_ctrls1.mergedWrBursts                    0                       # Number of DRAM write bursts merged with an existing one
system.mem_ctrls1.neitherReadNorWriteReqs            0                       # Number of requests that are neither read nor write
system.mem_ctrls1.perBankRdBursts::0           351667                       # Per bank write bursts
system.mem_ctrls1.perBankRdBursts::1           292893                       # Per bank write bursts
system.mem_ctrls1.perBankRdBursts::2           363613                       # Per bank write bursts
system.mem_ctrls1.perBankRdBursts::3           264109                       # Per bank write bursts
system.mem_ctrls1.perBankRdBursts::4           313523                       # Per bank write bursts
system.mem_ctrls1.perBankRdBursts::5           351454                       # Per bank write bursts
system.mem_ctrls1.perBankRdBursts::6           334654                       # Per bank write bursts
system.mem_ctrls1.perBankRdBursts::7           461333                       # Per bank write bursts
system.mem_ctrls1.perBankRdBursts::8           383049                       # Per bank write bursts
system.mem_ctrls1.perBankRdBursts::9           290234                       # Per bank write bursts
system.mem_ctrls1.perBankRdBursts::10          369827                       # Per bank write bursts
system.mem_ctrls1.perBankRdBursts::11          252603                       # Per bank write bursts
system.mem_ctrls1.perBankRdBursts::12          283701                       # Per bank write bursts
system.mem_ctrls1.perBankRdBursts::13          313130                       # Per bank write bursts
system.mem_ctrls1.perBankRdBursts::14          320883                       # Per bank write bursts
system.mem_ctrls1.perBankRdBursts::15          449343                       # Per bank write bursts
system.mem_ctrls1.perBankWrBursts::0           166817                       # Per bank write bursts
system.mem_ctrls1.perBankWrBursts::1           130867                       # Per bank write bursts
system.mem_ctrls1.perBankWrBursts::2           170817                       # Per bank write bursts
system.mem_ctrls1.perBankWrBursts::3           126786                       # Per bank write bursts
system.mem_ctrls1.perBankWrBursts::4           141135                       # Per bank write bursts
system.mem_ctrls1.perBankWrBursts::5           162360                       # Per bank write bursts
system.mem_ctrls1.perBankWrBursts::6           143192                       # Per bank write bursts
system.mem_ctrls1.perBankWrBursts::7           210838                       # Per bank write bursts
system.mem_ctrls1.perBankWrBursts::8           180186                       # Per bank write bursts
system.mem_ctrls1.perBankWrBursts::9           128195                       # Per bank write bursts
system.mem_ctrls1.perBankWrBursts::10          175881                       # Per bank write bursts
system.mem_ctrls1.perBankWrBursts::11          122107                       # Per bank write bursts
system.mem_ctrls1.perBankWrBursts::12          143047                       # Per bank write bursts
system.mem_ctrls1.perBankWrBursts::13          151042                       # Per bank write bursts
system.mem_ctrls1.perBankWrBursts::14          158473                       # Per bank write bursts
system.mem_ctrls1.perBankWrBursts::15          215829                       # Per bank write bursts
system.mem_ctrls1.numRdRetry                        0                       # Number of times read queue was full causing retry
system.mem_ctrls1.numWrRetry                        0                       # Number of times write queue was full causing retry
system.mem_ctrls1.totGap                 3271548588255                       # Total gap between requests
system.mem_ctrls1.readPktSize::0                    0                       # Read request sizes (log2)
system.mem_ctrls1.readPktSize::1                    0                       # Read request sizes (log2)
system.mem_ctrls1.readPktSize::2                    0                       # Read request sizes (log2)
system.mem_ctrls1.readPktSize::3                    0                       # Read request sizes (log2)
system.mem_ctrls1.readPktSize::4                    0                       # Read request sizes (log2)
system.mem_ctrls1.readPktSize::5                    0                       # Read request sizes (log2)
system.mem_ctrls1.readPktSize::6              5435798                       # Read request sizes (log2)
system.mem_ctrls1.writePktSize::0                   0                       # Write request sizes (log2)
system.mem_ctrls1.writePktSize::1                   0                       # Write request sizes (log2)
system.mem_ctrls1.writePktSize::2                   0                       # Write request sizes (log2)
system.mem_ctrls1.writePktSize::3                   0                       # Write request sizes (log2)
system.mem_ctrls1.writePktSize::4                   0                       # Write request sizes (log2)
system.mem_ctrls1.writePktSize::5                   0                       # Write request sizes (log2)
system.mem_ctrls1.writePktSize::6             2527599                       # Write request sizes (log2)
system.mem_ctrls1.rdQLenPdf::0                5302496                       # What read queue length does an incoming req see
system.mem_ctrls1.rdQLenPdf::1                  87021                       # What read queue length does an incoming req see
system.mem_ctrls1.rdQLenPdf::2                   6198                       # What read queue length does an incoming req see
system.mem_ctrls1.rdQLenPdf::3                    301                       # What read queue length does an incoming req see
system.mem_ctrls1.rdQLenPdf::4                      0                       # What read queue length does an incoming req see
system.mem_ctrls1.rdQLenPdf::5                      0                       # What read queue length does an incoming req see
system.mem_ctrls1.rdQLenPdf::6                      0                       # What read queue length does an incoming req see
system.mem_ctrls1.rdQLenPdf::7                      0                       # What read queue length does an incoming req see
system.mem_ctrls1.rdQLenPdf::8                      0                       # What read queue length does an incoming req see
system.mem_ctrls1.rdQLenPdf::9                      0                       # What read queue length does an incoming req see
system.mem_ctrls1.rdQLenPdf::10                     0                       # What read queue length does an incoming req see
system.mem_ctrls1.rdQLenPdf::11                     0                       # What read queue length does an incoming req see
system.mem_ctrls1.rdQLenPdf::12                     0                       # What read queue length does an incoming req see
system.mem_ctrls1.rdQLenPdf::13                     0                       # What read queue length does an incoming req see
system.mem_ctrls1.rdQLenPdf::14                     0                       # What read queue length does an incoming req see
system.mem_ctrls1.rdQLenPdf::15                     0                       # What read queue length does an incoming req see
system.mem_ctrls1.rdQLenPdf::16                     0                       # What read queue length does an incoming req see
system.mem_ctrls1.rdQLenPdf::17                     0                       # What read queue length does an incoming req see
system.mem_ctrls1.rdQLenPdf::18                     0                       # What read queue length does an incoming req see
system.mem_ctrls1.rdQLenPdf::19                     0                       # What read queue length does an incoming req see
system.mem_ctrls1.rdQLenPdf::20                     0                       # What read queue length does an incoming req see
system.mem_ctrls1.rdQLenPdf::21                     0                       # What read queue length does an incoming req see
system.mem_ctrls1.rdQLenPdf::22                     0                       # What read queue length does an incoming req see
system.mem_ctrls1.rdQLenPdf::23                     0                       # What read queue length does an incoming req see
system.mem_ctrls1.rdQLenPdf::24                     0                       # What read queue length does an incoming req see
system.mem_ctrls1.rdQLenPdf::25                     0                       # What read queue length does an incoming req see
system.mem_ctrls1.rdQLenPdf::26                     0                       # What read queue length does an incoming req see
system.mem_ctrls1.rdQLenPdf::27                     0                       # What read queue length does an incoming req see
system.mem_ctrls1.rdQLenPdf::28                     0                       # What read queue length does an incoming req see
system.mem_ctrls1.rdQLenPdf::29                     0                       # What read queue length does an incoming req see
system.mem_ctrls1.rdQLenPdf::30                     0                       # What read queue length does an incoming req see
system.mem_ctrls1.rdQLenPdf::31                     0                       # What read queue length does an incoming req see
system.mem_ctrls1.wrQLenPdf::0                      2                       # What write queue length does an incoming req see
system.mem_ctrls1.wrQLenPdf::1                      2                       # What write queue length does an incoming req see
system.mem_ctrls1.wrQLenPdf::2                      2                       # What write queue length does an incoming req see
system.mem_ctrls1.wrQLenPdf::3                      2                       # What write queue length does an incoming req see
system.mem_ctrls1.wrQLenPdf::4                      2                       # What write queue length does an incoming req see
system.mem_ctrls1.wrQLenPdf::5                      2                       # What write queue length does an incoming req see
system.mem_ctrls1.wrQLenPdf::6                      2                       # What write queue length does an incoming req see
system.mem_ctrls1.wrQLenPdf::7                      2                       # What write queue length does an incoming req see
system.mem_ctrls1.wrQLenPdf::8                      2                       # What write queue length does an incoming req see
system.mem_ctrls1.wrQLenPdf::9                      2                       # What write queue length does an incoming req see
system.mem_ctrls1.wrQLenPdf::10                     2                       # What write queue length does an incoming req see
system.mem_ctrls1.wrQLenPdf::11                     2                       # What write queue length does an incoming req see
system.mem_ctrls1.wrQLenPdf::12                     2                       # What write queue length does an incoming req see
system.mem_ctrls1.wrQLenPdf::13                     2                       # What write queue length does an incoming req see
system.mem_ctrls1.wrQLenPdf::14                     2                       # What write queue length does an incoming req see
system.mem_ctrls1.wrQLenPdf::15                121862                       # What write queue length does an incoming req see
system.mem_ctrls1.wrQLenPdf::16                124226                       # What write queue length does an incoming req see
system.mem_ctrls1.wrQLenPdf::17                142057                       # What write queue length does an incoming req see
system.mem_ctrls1.wrQLenPdf::18                142640                       # What write queue length does an incoming req see
system.mem_ctrls1.wrQLenPdf::19                142689                       # What write queue length does an incoming req see
system.mem_ctrls1.wrQLenPdf::20                142702                       # What write queue length does an incoming req see
system.mem_ctrls1.wrQLenPdf::21                142648                       # What write queue length does an incoming req see
system.mem_ctrls1.wrQLenPdf::22                142620                       # What write queue length does an incoming req see
system.mem_ctrls1.wrQLenPdf::23                142633                       # What write queue length does an incoming req see
system.mem_ctrls1.wrQLenPdf::24                142629                       # What write queue length does an incoming req see
system.mem_ctrls1.wrQLenPdf::25                142680                       # What write queue length does an incoming req see
system.mem_ctrls1.wrQLenPdf::26                142870                       # What write queue length does an incoming req see
system.mem_ctrls1.wrQLenPdf::27                142598                       # What write queue length does an incoming req see
system.mem_ctrls1.wrQLenPdf::28                142544                       # What write queue length does an incoming req see
system.mem_ctrls1.wrQLenPdf::29                142654                       # What write queue length does an incoming req see
system.mem_ctrls1.wrQLenPdf::30                142748                       # What write queue length does an incoming req see
system.mem_ctrls1.wrQLenPdf::31                142381                       # What write queue length does an incoming req see
system.mem_ctrls1.wrQLenPdf::32                142374                       # What write queue length does an incoming req see
system.mem_ctrls1.wrQLenPdf::33                    14                       # What write queue length does an incoming req see
system.mem_ctrls1.wrQLenPdf::34                     0                       # What write queue length does an incoming req see
system.mem_ctrls1.wrQLenPdf::35                     0                       # What write queue length does an incoming req see
system.mem_ctrls1.wrQLenPdf::36                     0                       # What write queue length does an incoming req see
system.mem_ctrls1.wrQLenPdf::37                     0                       # What write queue length does an incoming req see
system.mem_ctrls1.wrQLenPdf::38                     0                       # What write queue length does an incoming req see
system.mem_ctrls1.wrQLenPdf::39                     0                       # What write queue length does an incoming req see
system.mem_ctrls1.wrQLenPdf::40                     0                       # What write queue length does an incoming req see
system.mem_ctrls1.wrQLenPdf::41                     0                       # What write queue length does an incoming req see
system.mem_ctrls1.wrQLenPdf::42                     0                       # What write queue length does an incoming req see
system.mem_ctrls1.wrQLenPdf::43                     0                       # What write queue length does an incoming req see
system.mem_ctrls1.wrQLenPdf::44                     0                       # What write queue length does an incoming req see
system.mem_ctrls1.wrQLenPdf::45                     0                       # What write queue length does an incoming req see
system.mem_ctrls1.wrQLenPdf::46                     0                       # What write queue length does an incoming req see
system.mem_ctrls1.wrQLenPdf::47                     0                       # What write queue length does an incoming req see
system.mem_ctrls1.wrQLenPdf::48                     0                       # What write queue length does an incoming req see
system.mem_ctrls1.wrQLenPdf::49                     0                       # What write queue length does an incoming req see
system.mem_ctrls1.wrQLenPdf::50                     0                       # What write queue length does an incoming req see
system.mem_ctrls1.wrQLenPdf::51                     0                       # What write queue length does an incoming req see
system.mem_ctrls1.wrQLenPdf::52                     0                       # What write queue length does an incoming req see
system.mem_ctrls1.wrQLenPdf::53                     0                       # What write queue length does an incoming req see
system.mem_ctrls1.wrQLenPdf::54                     0                       # What write queue length does an incoming req see
system.mem_ctrls1.wrQLenPdf::55                     0                       # What write queue length does an incoming req see
system.mem_ctrls1.wrQLenPdf::56                     0                       # What write queue length does an incoming req see
system.mem_ctrls1.wrQLenPdf::57                     0                       # What write queue length does an incoming req see
system.mem_ctrls1.wrQLenPdf::58                     0                       # What write queue length does an incoming req see
system.mem_ctrls1.wrQLenPdf::59                     0                       # What write queue length does an incoming req see
system.mem_ctrls1.wrQLenPdf::60                     0                       # What write queue length does an incoming req see
system.mem_ctrls1.wrQLenPdf::61                     0                       # What write queue length does an incoming req see
system.mem_ctrls1.wrQLenPdf::62                     0                       # What write queue length does an incoming req see
system.mem_ctrls1.wrQLenPdf::63                     0                       # What write queue length does an incoming req see
system.mem_ctrls1.bytesPerActivate::samples      7034804                       # Bytes accessed per row activation
system.mem_ctrls1.bytesPerActivate::mean    72.085741                       # Bytes accessed per row activation
system.mem_ctrls1.bytesPerActivate::gmean    69.156626                       # Bytes accessed per row activation
system.mem_ctrls1.bytesPerActivate::stdev    28.870873                       # Bytes accessed per row activation
system.mem_ctrls1.bytesPerActivate::64-127      6355288     90.34%     90.34% # Bytes accessed per row activation
system.mem_ctrls1.bytesPerActivate::128-191       540277      7.68%     98.02% # Bytes accessed per row activation
system.mem_ctrls1.bytesPerActivate::192-255        96938      1.38%     99.40% # Bytes accessed per row activation
system.mem_ctrls1.bytesPerActivate::256-319        26186      0.37%     99.77% # Bytes accessed per row activation
system.mem_ctrls1.bytesPerActivate::320-383         9456      0.13%     99.91% # Bytes accessed per row activation
system.mem_ctrls1.bytesPerActivate::384-447         3933      0.06%     99.96% # Bytes accessed per row activation
system.mem_ctrls1.bytesPerActivate::448-511         1523      0.02%     99.98% # Bytes accessed per row activation
system.mem_ctrls1.bytesPerActivate::512-575          640      0.01%     99.99% # Bytes accessed per row activation
system.mem_ctrls1.bytesPerActivate::576-639          301      0.00%    100.00% # Bytes accessed per row activation
system.mem_ctrls1.bytesPerActivate::640-703          148      0.00%    100.00% # Bytes accessed per row activation
system.mem_ctrls1.bytesPerActivate::704-767           64      0.00%    100.00% # Bytes accessed per row activation
system.mem_ctrls1.bytesPerActivate::768-831           32      0.00%    100.00% # Bytes accessed per row activation
system.mem_ctrls1.bytesPerActivate::832-895           10      0.00%    100.00% # Bytes accessed per row activation
system.mem_ctrls1.bytesPerActivate::896-959            7      0.00%    100.00% # Bytes accessed per row activation
system.mem_ctrls1.bytesPerActivate::960-1023            1      0.00%    100.00% # Bytes accessed per row activation
system.mem_ctrls1.bytesPerActivate::total      7034804                       # Bytes accessed per row activation
system.mem_ctrls1.rdPerTurnAround::samples       142370                       # Reads before turning the bus around for writes
system.mem_ctrls1.rdPerTurnAround::mean     37.901131                       # Reads before turning the bus around for writes
system.mem_ctrls1.rdPerTurnAround::gmean    34.439492                       # Reads before turning the bus around for writes
system.mem_ctrls1.rdPerTurnAround::stdev    66.147621                       # Reads before turning the bus around for writes
system.mem_ctrls1.rdPerTurnAround::0-1023       142369    100.00%    100.00% # Reads before turning the bus around for writes
system.mem_ctrls1.rdPerTurnAround::23552-24575            1      0.00%    100.00% # Reads before turning the bus around for writes
system.mem_ctrls1.rdPerTurnAround::total       142370                       # Reads before turning the bus around for writes
system.mem_ctrls1.wrPerTurnAround::samples       142370                       # Writes before turning the bus around for reads
system.mem_ctrls1.wrPerTurnAround::mean     17.753544                       # Writes before turning the bus around for reads
system.mem_ctrls1.wrPerTurnAround::gmean    17.738799                       # Writes before turning the bus around for reads
system.mem_ctrls1.wrPerTurnAround::stdev     0.705624                       # Writes before turning the bus around for reads
system.mem_ctrls1.wrPerTurnAround::16           18358     12.89%     12.89% # Writes before turning the bus around for reads
system.mem_ctrls1.wrPerTurnAround::17            2046      1.44%     14.33% # Writes before turning the bus around for reads
system.mem_ctrls1.wrPerTurnAround::18          118469     83.21%     97.54% # Writes before turning the bus around for reads
system.mem_ctrls1.wrPerTurnAround::19            3331      2.34%     99.88% # Writes before turning the bus around for reads
system.mem_ctrls1.wrPerTurnAround::20             157      0.11%     99.99% # Writes before turning the bus around for reads
system.mem_ctrls1.wrPerTurnAround::21               8      0.01%    100.00% # Writes before turning the bus around for reads
system.mem_ctrls1.wrPerTurnAround::23               1      0.00%    100.00% # Writes before turning the bus around for reads
system.mem_ctrls1.wrPerTurnAround::total       142370                       # Writes before turning the bus around for reads
system.mem_ctrls1.totQLat                145915499389                       # Total ticks spent queuing
system.mem_ctrls1.totMemAccLat           247090799389                       # Total ticks spent from burst creation until serviced by the DRAM
system.mem_ctrls1.totBusLat               26980080000                       # Total ticks spent in databus transfers
system.mem_ctrls1.avgQLat                    27041.34                       # Average queueing delay per DRAM burst
system.mem_ctrls1.avgBusLat                   5000.00                       # Average bus latency per DRAM burst
system.mem_ctrls1.avgMemAccLat               45791.34                       # Average memory access latency per DRAM burst
system.mem_ctrls1.avgRdBW                      105.56                       # Average DRAM read bandwidth in MiByte/s
system.mem_ctrls1.avgWrBW                       49.45                       # Average achieved write bandwidth in MiByte/s
system.mem_ctrls1.avgRdBWSys                   106.34                       # Average system read bandwidth in MiByte/s
system.mem_ctrls1.avgWrBWSys                    49.45                       # Average system write bandwidth in MiByte/s
system.mem_ctrls1.peakBW                     12800.00                       # Theoretical peak bandwidth in MiByte/s
system.mem_ctrls1.busUtil                        1.21                       # Data bus utilization in percentage
system.mem_ctrls1.busUtilRead                    0.82                       # Data bus utilization in percentage for reads
system.mem_ctrls1.busUtilWrite                   0.39                       # Data bus utilization in percentage for writes
system.mem_ctrls1.avgRdQLen                      1.01                       # Average read queue length when enqueuing
system.mem_ctrls1.avgWrQLen                     24.55                       # Average write queue length when enqueuing
system.mem_ctrls1.readRowHits                  860801                       # Number of row buffer hits during reads
system.mem_ctrls1.writeRowHits                  27974                       # Number of row buffer hits during writes
system.mem_ctrls1.readRowHitRate                15.95                       # Row buffer hit rate for reads
system.mem_ctrls1.writeRowHitRate                1.11                       # Row buffer hit rate for writes
system.mem_ctrls1.avgGap                    410823.24                       # Average gap between requests
system.mem_ctrls1.pageHitRate                   11.22                       # Row buffer hit rate, read and write combined
system.mem_ctrls1_0.actEnergy             25182294480                       # Energy for activate commands per rank (pJ)
system.mem_ctrls1_0.preEnergy             13384687965                       # Energy for precharge commands per rank (pJ)
system.mem_ctrls1_0.readEnergy            19515376440                       # Energy for read commands per rank (pJ)
system.mem_ctrls1_0.writeEnergy            6539678640                       # Energy for write commands per rank (pJ)
system.mem_ctrls1_0.refreshEnergy        259697078160.000061                       # Energy for refresh commands per rank (pJ)
system.mem_ctrls1_0.actBackEnergy        164492873160                       # Energy for active background per rank (pJ)
system.mem_ctrls1_0.preBackEnergy          6065415360                       # Energy for precharge background per rank (pJ)
system.mem_ctrls1_0.actPowerDownEnergy   1103305330020                       # Energy for active power-down per rank (pJ)
system.mem_ctrls1_0.prePowerDownEnergy   176231037600                       # Energy for precharge power-down per rank (pJ)
system.mem_ctrls1_0.selfRefreshEnergy      6636683160                       # Energy for self refresh per rank (pJ)
system.mem_ctrls1_0.totalEnergy          1781077306875                       # Total energy per rank (pJ)
system.mem_ctrls1_0.averagePower           544.414103                       # Core power per rank (mW)
system.mem_ctrls1_0.totalIdleTime        2894961006719                       # Total Idle time Per DRAM Rank
system.mem_ctrls1_0.memoryStateTime::IDLE   3713148049                       # Time in different power states
system.mem_ctrls1_0.memoryStateTime::REF 109887040000                       # Time in different power states
system.mem_ctrls1_0.memoryStateTime::SREF  16499407455                       # Time in different power states
system.mem_ctrls1_0.memoryStateTime::PRE_PDN 458937871990                       # Time in different power states
system.mem_ctrls1_0.memoryStateTime::ACT 262986696057                       # Time in different power states
system.mem_ctrls1_0.memoryStateTime::ACT_PDN 2419524625836                       # Time in different power states
system.mem_ctrls1_1.actEnergy             25046270340                       # Energy for activate commands per rank (pJ)
system.mem_ctrls1_1.preEnergy             13312393215                       # Energy for precharge commands per rank (pJ)
system.mem_ctrls1_1.readEnergy            19012177800                       # Energy for read commands per rank (pJ)
system.mem_ctrls1_1.writeEnergy            6654247200                       # Energy for write commands per rank (pJ)
system.mem_ctrls1_1.refreshEnergy        259716746640.000061                       # Energy for refresh commands per rank (pJ)
system.mem_ctrls1_1.actBackEnergy        162903331260                       # Energy for active background per rank (pJ)
system.mem_ctrls1_1.preBackEnergy          6085448160                       # Energy for precharge background per rank (pJ)
system.mem_ctrls1_1.actPowerDownEnergy   1101012013110                       # Energy for active power-down per rank (pJ)
system.mem_ctrls1_1.prePowerDownEnergy   178790228640                       # Energy for precharge power-down per rank (pJ)
system.mem_ctrls1_1.selfRefreshEnergy      7224628200                       # Energy for self refresh per rank (pJ)
system.mem_ctrls1_1.totalEnergy          1779789175905                       # Total energy per rank (pJ)
system.mem_ctrls1_1.averagePower           544.020364                       # Core power per rank (mW)
system.mem_ctrls1_1.totalIdleTime        2898399998724                       # Total Idle time Per DRAM Rank
system.mem_ctrls1_1.memoryStateTime::IDLE   3785873148                       # Time in different power states
system.mem_ctrls1_1.memoryStateTime::REF 109897154000                       # Time in different power states
system.mem_ctrls1_1.memoryStateTime::SREF  18287052743                       # Time in different power states
system.mem_ctrls1_1.memoryStateTime::PRE_PDN 465604784771                       # Time in different power states
system.mem_ctrls1_1.memoryStateTime::ACT 259465629618                       # Time in different power states
system.mem_ctrls1_1.memoryStateTime::ACT_PDN 2414508295107                       # Time in different power states
system.pwrStateResidencyTicks::UNDEFINED 303641769544074                       # Cumulative time (in ticks) in various power states
system.cpu.branchPred.lookups                       2                       # Number of BP lookups
system.cpu.branchPred.condPredicted                 1                       # Number of conditional branches predicted
system.cpu.branchPred.condIncorrect                 1                       # Number of conditional branches incorrect
system.cpu.branchPred.BTBLookups                    0                       # Number of BTB lookups
system.cpu.branchPred.BTBHits                       0                       # Number of BTB hits
system.cpu.branchPred.BTBCorrect                    0                       # Number of correct BTB predictions (this stat may not work properly.
system.cpu.branchPred.BTBHitPct                   nan                       # BTB Hit Percentage
system.cpu.branchPred.usedRAS                       1                       # Number of times the RAS was used to get a target.
system.cpu.branchPred.RASInCorrect                  1                       # Number of incorrect RAS predictions.
system.cpu.branchPred.indirectLookups               0                       # Number of indirect predictor lookups.
system.cpu.branchPred.indirectHits                  0                       # Number of indirect target hits.
system.cpu.branchPred.indirectMisses                0                       # Number of indirect misses.
system.cpu.branchPredindirectMispredicted            0                       # Number of mispredicted indirect branches.
system.cpu_voltage_domain.voltage                   1                       # Voltage in Volts
system.cpu_clk_domain.clock                       333                       # Clock period in ticks
system.cpu.dtb.fetch_hits                           0                       # ITB hits
system.cpu.dtb.fetch_misses                         0                       # ITB misses
system.cpu.dtb.fetch_acv                            0                       # ITB acv
system.cpu.dtb.fetch_accesses                       0                       # ITB accesses
system.cpu.dtb.read_hits                            3                       # DTB read hits
system.cpu.dtb.read_misses                          0                       # DTB read misses
system.cpu.dtb.read_acv                             0                       # DTB read access violations
system.cpu.dtb.read_accesses                        3                       # DTB read accesses
system.cpu.dtb.write_hits                           0                       # DTB write hits
system.cpu.dtb.write_misses                         1                       # DTB write misses
system.cpu.dtb.write_acv                            0                       # DTB write access violations
system.cpu.dtb.write_accesses                       1                       # DTB write accesses
system.cpu.dtb.data_hits                            3                       # DTB hits
system.cpu.dtb.data_misses                          1                       # DTB misses
system.cpu.dtb.data_acv                             0                       # DTB access violations
system.cpu.dtb.data_accesses                        4                       # DTB accesses
system.cpu.itb.fetch_hits                           3                       # ITB hits
system.cpu.itb.fetch_misses                         1                       # ITB misses
system.cpu.itb.fetch_acv                            0                       # ITB acv
system.cpu.itb.fetch_accesses                       4                       # ITB accesses
system.cpu.itb.read_hits                            0                       # DTB read hits
system.cpu.itb.read_misses                          0                       # DTB read misses
system.cpu.itb.read_acv                             0                       # DTB read access violations
system.cpu.itb.read_accesses                        0                       # DTB read accesses
system.cpu.itb.write_hits                           0                       # DTB write hits
system.cpu.itb.write_misses                         0                       # DTB write misses
system.cpu.itb.write_acv                            0                       # DTB write access violations
system.cpu.itb.write_accesses                       0                       # DTB write accesses
system.cpu.itb.data_hits                            0                       # DTB hits
system.cpu.itb.data_misses                          0                       # DTB misses
system.cpu.itb.data_acv                             0                       # DTB access violations
system.cpu.itb.data_accesses                        0                       # DTB accesses
system.cpu.workload.num_syscalls                    0                       # Number of system calls
system.cpu.pwrStateResidencyTicks::ON    3271548789387                       # Cumulative time (in ticks) in various power states
system.cpu.numCycles                              708                       # number of cpu cycles simulated
system.cpu.numWorkItemsStarted                      0                       # number of work items this cpu started
system.cpu.numWorkItemsCompleted                    0                       # number of work items this cpu completed
system.cpu.fetch.icacheStallCycles                 26                       # Number of cycles fetch is stalled on an Icache miss
system.cpu.fetch.Insts                             10                       # Number of instructions fetch has processed
system.cpu.fetch.Branches                           2                       # Number of branches that fetch encountered
system.cpu.fetch.predictedBranches                  1                       # Number of branches that fetch has predicted taken
system.cpu.fetch.Cycles                             2                       # Number of cycles fetch has run and was not squashing or blocked
system.cpu.fetch.SquashCycles                       5                       # Number of cycles fetch has spent squashing
system.cpu.fetch.PendingDrainCycles                 3                       # Number of cycles fetch has spent waiting on pipes to drain
system.cpu.fetch.PendingTrapStallCycles             6                       # Number of stall cycles due to pending traps
system.cpu.fetch.CacheLines                         3                       # Number of cache lines fetched
system.cpu.fetch.IcacheSquashes                     2                       # Number of outstanding Icache misses that were squashed
system.cpu.fetch.rateDist::samples                 39                       # Number of instructions fetched each cycle (Total)
system.cpu.fetch.rateDist::mean              0.256410                       # Number of instructions fetched each cycle (Total)
system.cpu.fetch.rateDist::stdev             1.312249                       # Number of instructions fetched each cycle (Total)
[...]
system.switch_cpus_1.iq.int_inst_queue_writes   1548178789                       # Number of integer instruction queue writes
system.switch_cpus_1.iq.int_inst_queue_wakeup_accesses    672187489                       # Number of integer instruction queue wakeup accesses
system.switch_cpus_1.iq.fp_inst_queue_reads       278534                       # Number of floating instruction queue reads
system.switch_cpus_1.iq.fp_inst_queue_writes       636554                       # Number of floating instruction queue writes
system.switch_cpus_1.iq.fp_inst_queue_wakeup_accesses       134778                       # Number of floating instruction queue wakeup accesses
system.switch_cpus_1.iq.int_alu_accesses    760327531                       # Number of integer alu accesses
system.switch_cpus_1.iq.fp_alu_accesses        139266                       # Number of floating point alu accesses
system.switch_cpus_1.iew.lsq.thread0.forwLoads     15928041                       # Number of loads that had data forwarded from stores
system.switch_cpus_1.iew.lsq.thread0.invAddrLoads            0                       # Number of loads ignored due to an invalid address
system.switch_cpus_1.iew.lsq.thread0.squashedLoads    211515700                       # Number of loads squashed
system.switch_cpus_1.iew.lsq.thread0.ignoredResponses        24588                       # Number of memory responses ignored because the instruction is squashed
system.switch_cpus_1.iew.lsq.thread0.memOrderViolation         1570                       # Number of memory ordering violations
system.switch_cpus_1.iew.lsq.thread0.squashedStores     45825568                       # Number of stores squashed
system.switch_cpus_1.iew.lsq.thread0.invAddrSwpfs            0                       # Number of software prefetches ignored due to an invalid address
system.switch_cpus_1.iew.lsq.thread0.blockedLoads            0                       # Number of blocked loads due to partial load-store forwarding
system.switch_cpus_1.iew.lsq.thread0.rescheduledLoads            0                       # Number of loads that were rescheduled
system.switch_cpus_1.iew.lsq.thread0.cacheBlocked     13376921                       # Number of times an access to memory failed due to the cache being blocked
system.switch_cpus_1.iew.iewIdleCycles              0                       # Number of cycles IEW is idle
system.switch_cpus_1.iew.iewSquashCycles     10036643                       # Number of cycles IEW is squashing
system.switch_cpus_1.iew.iewBlockCycles      89850727                       # Number of cycles IEW is blocking
system.switch_cpus_1.iew.iewUnblockCycles    149278627                       # Number of cycles IEW is unblocking
system.switch_cpus_1.iew.iewDispatchedInsts    874438855                       # Number of instructions dispatched to IQ
system.switch_cpus_1.iew.iewDispSquashedInsts       101243                       # Number of squashed instructions skipped by dispatch
system.switch_cpus_1.iew.iewDispLoadInsts    277197488                       # Number of dispatched load instructions
system.switch_cpus_1.iew.iewDispStoreInsts     61440349                       # Number of dispatched store instructions
system.switch_cpus_1.iew.iewDispNonSpecInsts         4210                       # Number of dispatched non-speculative instructions
system.switch_cpus_1.iew.iewIQFullEvents       101189                       # Number of times the IQ has become full, causing a stall
system.switch_cpus_1.iew.iewLSQFullEvents    150124063                       # Number of times the LSQ has become full, causing a stall
system.switch_cpus_1.iew.memOrderViolationEvents         1570                       # Number of memory order violations
system.switch_cpus_1.iew.predictedTakenIncorrect      3216510                       # Number of branches that were predicted taken incorrectly
system.switch_cpus_1.iew.predictedNotTakenIncorrect      2784962                       # Number of branches that were predicted not taken incorrectly
system.switch_cpus_1.iew.branchMispredicts      6001472                       # Number of branch mispredicts detected at execute
system.switch_cpus_1.iew.iewExecutedInsts    735934592                       # Number of executed instructions
system.switch_cpus_1.iew.iewExecLoadInsts    256315289                       # Number of load instructions executed
system.switch_cpus_1.iew.iewExecSquashedInsts     10679870                       # Number of squashed instructions skipped in execute
system.switch_cpus_1.iew.exec_swp                   0                       # number of swp insts executed
system.switch_cpus_1.iew.exec_nop               31930                       # number of nop insts executed
system.switch_cpus_1.iew.exec_refs          310636944                       # number of memory reference insts executed
system.switch_cpus_1.iew.exec_branches      102227408                       # Number of branches executed
system.switch_cpus_1.iew.exec_stores         54321655                       # Number of stores executed
system.switch_cpus_1.iew.exec_rate           0.692874                       # Inst execution rate
system.switch_cpus_1.iew.wb_sent            712288251                       # cumulative count of insts sent to commit
system.switch_cpus_1.iew.wb_count           672322267                       # cumulative count of insts written-back
system.switch_cpus_1.iew.wb_producers       415955367                       # num instructions producing a value
system.switch_cpus_1.iew.wb_consumers       518095737                       # num instructions consuming a value
system.switch_cpus_1.iew.wb_rate             0.632984                       # insts written-back per cycle
system.switch_cpus_1.iew.wb_fanout           0.802854                       # average fanout of values written-back
system.switch_cpus_1.commit.commitSquashedInsts    589314625                       # The number of squashed insts skipped by commit
system.switch_cpus_1.commit.commitNonSpecStalls          600                       # The number of times commit has been forced to stall to communicate backwards
system.switch_cpus_1.commit.branchMispredicts      5337868                       # The number of times a branch was mispredicted
system.switch_cpus_1.commit.committed_per_cycle::samples    976823239                       # Number of insts commited each cycle
system.switch_cpus_1.commit.committed_per_cycle::mean     0.204757                       # Number of insts commited each cycle
system.switch_cpus_1.commit.committed_per_cycle::stdev     1.046430                       # Number of insts commited each cycle
system.switch_cpus_1.commit.committed_per_cycle::underflows            0      0.00%      0.00% # Number of insts commited each cycle
system.switch_cpus_1.commit.committed_per_cycle::0    920059175     94.19%     94.19% # Number of insts commited each cycle
system.switch_cpus_1.commit.committed_per_cycle::1     20447165      2.09%     96.28% # Number of insts commited each cycle
system.switch_cpus_1.commit.committed_per_cycle::2      8653531      0.89%     97.17% # Number of insts commited each cycle
system.switch_cpus_1.commit.committed_per_cycle::3      2603460      0.27%     97.43% # Number of insts commited each cycle
system.switch_cpus_1.commit.committed_per_cycle::4      8021844      0.82%     98.26% # Number of insts commited each cycle
system.switch_cpus_1.commit.committed_per_cycle::5      3352658      0.34%     98.60% # Number of insts commited each cycle
system.switch_cpus_1.commit.committed_per_cycle::6      1186339      0.12%     98.72% # Number of insts commited each cycle
system.switch_cpus_1.commit.committed_per_cycle::7      1514372      0.16%     98.88% # Number of insts commited each cycle
system.switch_cpus_1.commit.committed_per_cycle::8     10984695      1.12%    100.00% # Number of insts commited each cycle
system.switch_cpus_1.commit.committed_per_cycle::overflows            0      0.00%    100.00% # Number of insts commited each cycle
system.switch_cpus_1.commit.committed_per_cycle::min_value            0                       # Number of insts commited each cycle
system.switch_cpus_1.commit.committed_per_cycle::max_value            8                       # Number of insts commited each cycle
system.switch_cpus_1.commit.committed_per_cycle::total    976823239                       # Number of insts commited each cycle
system.switch_cpus_1.commit.committedInsts    200011471                       # Number of instructions committed
system.switch_cpus_1.commit.committedOps    200011471                       # Number of ops (including micro ops) committed
system.switch_cpus_1.commit.swp_count               0                       # Number of s/w prefetches committed
system.switch_cpus_1.commit.refs             81296536                       # Number of memory references committed
system.switch_cpus_1.commit.loads            65681764                       # Number of loads committed
system.switch_cpus_1.commit.membars               300                       # Number of memory barriers committed
system.switch_cpus_1.commit.branches         31827976                       # Number of branches committed
system.switch_cpus_1.commit.fp_insts            82770                       # Number of committed floating point instructions.
system.switch_cpus_1.commit.int_insts       198559748                       # Number of committed integer instructions.
system.switch_cpus_1.commit.function_calls      6119272                       # Number of function calls committed.
system.switch_cpus_1.commit.op_class_0::No_OpClass        11470      0.01%      0.01% # Class of committed instruction
system.switch_cpus_1.commit.op_class_0::IntAlu    118620830     59.31%     59.31% # Class of committed instruction
system.switch_cpus_1.commit.op_class_0::IntMult          540      0.00%     59.31% # Class of committed instruction
system.switch_cpus_1.commit.op_class_0::IntDiv            0      0.00%     59.31% # Class of committed instruction
system.switch_cpus_1.commit.op_class_0::FloatAdd        39084      0.02%     59.33% # Class of committed instruction
system.switch_cpus_1.commit.op_class_0::FloatCmp         2298      0.00%     59.33% # Class of committed instruction
system.switch_cpus_1.commit.op_class_0::FloatCvt        21051      0.01%     59.34% # Class of committed instruction
system.switch_cpus_1.commit.op_class_0::FloatMult        19362      0.01%     59.35% # Class of committed instruction
system.switch_cpus_1.commit.op_class_0::FloatMultAcc            0      0.00%     59.35% # Class of committed instruction
system.switch_cpus_1.commit.op_class_0::FloatDiv            0      0.00%     59.35% # Class of committed instruction
system.switch_cpus_1.commit.op_class_0::FloatMisc            0      0.00%     59.35% # Class of committed instruction
system.switch_cpus_1.commit.op_class_0::FloatSqrt            0      0.00%     59.35% # Class of committed instruction
system.switch_cpus_1.commit.op_class_0::SimdAdd            0      0.00%     59.35% # Class of committed instruction
system.switch_cpus_1.commit.op_class_0::SimdAddAcc            0      0.00%     59.35% # Class of committed instruction
system.switch_cpus_1.commit.op_class_0::SimdAlu            0      0.00%     59.35% # Class of committed instruction
system.switch_cpus_1.commit.op_class_0::SimdCmp            0      0.00%     59.35% # Class of committed instruction
system.switch_cpus_1.commit.op_class_0::SimdCvt            0      0.00%     59.35% # Class of committed instruction
system.switch_cpus_1.commit.op_class_0::SimdMisc            0      0.00%     59.35% # Class of committed instruction
system.switch_cpus_1.commit.op_class_0::SimdMult            0      0.00%     59.35% # Class of committed instruction
system.switch_cpus_1.commit.op_class_0::SimdMultAcc            0      0.00%     59.35% # Class of committed instruction
system.switch_cpus_1.commit.op_class_0::SimdShift            0      0.00%     59.35% # Class of committed instruction
system.switch_cpus_1.commit.op_class_0::SimdShiftAcc            0      0.00%     59.35% # Class of committed instruction
system.switch_cpus_1.commit.op_class_0::SimdSqrt            0      0.00%     59.35% # Class of committed instruction
system.switch_cpus_1.commit.op_class_0::SimdFloatAdd            0      0.00%     59.35% # Class of committed instruction
system.switch_cpus_1.commit.op_class_0::SimdFloatAlu            0      0.00%     59.35% # Class of committed instruction
system.switch_cpus_1.commit.op_class_0::SimdFloatCmp            0      0.00%     59.35% # Class of committed instruction
system.switch_cpus_1.commit.op_class_0::SimdFloatCvt            0      0.00%     59.35% # Class of committed instruction
system.switch_cpus_1.commit.op_class_0::SimdFloatDiv            0      0.00%     59.35% # Class of committed instruction
system.switch_cpus_1.commit.op_class_0::SimdFloatMisc            0      0.00%     59.35% # Class of committed instruction
system.switch_cpus_1.commit.op_class_0::SimdFloatMult            0      0.00%     59.35% # Class of committed instruction
system.switch_cpus_1.commit.op_class_0::SimdFloatMultAcc            0      0.00%     59.35% # Class of committed instruction
system.switch_cpus_1.commit.op_class_0::SimdFloatSqrt            0      0.00%     59.35% # Class of committed instruction
system.switch_cpus_1.commit.op_class_0::MemRead     65681269     32.84%     92.19% # Class of committed instruction
system.switch_cpus_1.commit.op_class_0::MemWrite     15614592      7.81%    100.00% # Class of committed instruction
system.switch_cpus_1.commit.op_class_0::FloatMemRead          795      0.00%    100.00% # Class of committed instruction
system.switch_cpus_1.commit.op_class_0::FloatMemWrite          180      0.00%    100.00% # Class of committed instruction
system.switch_cpus_1.commit.op_class_0::IprAccess            0      0.00%    100.00% # Class of committed instruction
system.switch_cpus_1.commit.op_class_0::InstPrefetch            0      0.00%    100.00% # Class of committed instruction
system.switch_cpus_1.commit.op_class_0::total    200011471                       # Class of committed instruction
system.switch_cpus_1.commit.bw_lim_events     10984695                       # number cycles where commit BW limit reached
system.switch_cpus_1.rob.rob_reads         1694095983                       # The number of ROB reads
system.switch_cpus_1.rob.rob_writes        1663976873                       # The number of ROB writes
system.switch_cpus_1.timesIdled                   107                       # Number of times that the entire CPU went into an idle state and unscheduled itself
system.switch_cpus_1.idleCycles                 10966                       # Total number of cycles that the CPU has spent unscheduled due to idling
system.switch_cpus_1.committedInsts         200000001                       # Number of Instructions Simulated
system.switch_cpus_1.committedOps           200000001                       # Number of Ops (including micro ops) Simulated
system.switch_cpus_1.cpi                     5.310738                       # CPI: Cycles Per Instruction
system.switch_cpus_1.cpi_total               5.310738                       # CPI: Total CPI of All Threads
system.switch_cpus_1.ipc                     0.188298                       # IPC: Instructions Per Cycle
system.switch_cpus_1.ipc_total               0.188298                       # IPC: Total IPC of All Threads
system.switch_cpus_1.int_regfile_reads      952012393                       # number of integer regfile reads
system.switch_cpus_1.int_regfile_writes     559472223                       # number of integer regfile writes
system.switch_cpus_1.fp_regfile_reads          173562                       # number of floating regfile reads
system.switch_cpus_1.fp_regfile_writes         132905                       # number of floating regfile writes
system.switch_cpus_1.misc_regfile_reads           675                       # number of misc regfile reads
system.switch_cpus_1.misc_regfile_writes          600                       # number of misc regfile writes
system.tol3bus.snoop_filter.tot_requests     76742893                       # Total number of requests made to the snoop filter.
system.tol3bus.snoop_filter.hit_single_requests     38369333                       # Number of requests hitting in the snoop filter with a single holder of the requested data.
system.tol3bus.snoop_filter.hit_multi_requests            0                       # Number of requests hitting in the snoop filter with multiple (>1) holders of the requested data.
system.tol3bus.snoop_filter.tot_snoops           1180                       # Total number of snoops made to the snoop filter.
system.tol3bus.snoop_filter.hit_single_snoops         1180                       # Number of snoops hitting in the snoop filter with a single holder of the requested data.
system.tol3bus.snoop_filter.hit_multi_snoops            0                       # Number of snoops hitting in the snoop filter with multiple (>1) holders of the requested data.
system.tol3bus.pwrStateResidencyTicks::UNDEFINED 303641769544074                       # Cumulative time (in ticks) in various power states
system.tol3bus.trans_dist::ReadResp          19683204                       # Transaction distribution
system.tol3bus.trans_dist::WritebackDirty     32191034                       # Transaction distribution
system.tol3bus.trans_dist::CleanEvict        16971779                       # Transaction distribution
system.tol3bus.trans_dist::ReadExReq         18690356                       # Transaction distribution
system.tol3bus.trans_dist::ReadExResp        18690356                       # Transaction distribution
system.tol3bus.trans_dist::ReadSharedReq     19683204                       # Transaction distribution
system.tol3bus.pkt_count_system.cpu.l2.mem_side::system.l3.cpu_side    115116453                       # Packet count per connected master and slave (bytes)
system.tol3bus.pkt_size_system.cpu.l2.mem_side::system.l3.cpu_side   4192226368                       # Cumulative packet size per connected master and slave (bytes)
system.tol3bus.snoops                        10793480                       # Total snoops (count)
system.tol3bus.snoopTraffic                 323907648                       # Total snoop traffic (bytes)
system.tol3bus.snoop_fanout::samples         49167040                       # Request fanout histogram
system.tol3bus.snoop_fanout::mean            0.000024                       # Request fanout histogram
system.tol3bus.snoop_fanout::stdev           0.004899                       # Request fanout histogram
system.tol3bus.snoop_fanout::underflows             0      0.00%      0.00% # Request fanout histogram
system.tol3bus.snoop_fanout::0               49165860    100.00%    100.00% # Request fanout histogram
system.tol3bus.snoop_fanout::1                   1180      0.00%    100.00% # Request fanout histogram
system.tol3bus.snoop_fanout::overflows              0      0.00%    100.00% # Request fanout histogram
system.tol3bus.snoop_fanout::min_value              0                       # Request fanout histogram
system.tol3bus.snoop_fanout::max_value              1                       # Request fanout histogram
system.tol3bus.snoop_fanout::total           49167040                       # Request fanout histogram
system.tol3bus.reqLayer0.occupancy        34589665710                       # Layer occupancy (ticks)
system.tol3bus.reqLayer0.utilization              1.1                       # Layer utilization (%)
system.tol3bus.respLayer0.occupancy       25556790960                       # Layer occupancy (ticks)
system.tol3bus.respLayer0.utilization             0.8                       # Layer utilization (%)

---------- End Simulation Statistics   ----------
