
---------- Begin Simulation Statistics ----------
sim_seconds                                  1.012546                       # Number of seconds simulated
sim_ticks                                1012546183590                       # Number of ticks simulated
final_tick                               310860428067999                       # Number of ticks from beginning of simulation (restored from checkpoints and never reset)
sim_freq                                 1000000000000                       # Frequency of simulated ticks
host_inst_rate                                 703664                       # Simulator instruction rate (inst/s)
host_op_rate                                   703664                       # Simulator op (including micro ops) rate (op/s)
host_tick_rate                              593743329                       # Simulator tick rate (ticks/s)
host_mem_usage                                2399556                       # Number of bytes of host memory used
host_seconds                                  1705.36                       # Real time elapsed on the host
sim_insts                                  1200000007                       # Number of instructions simulated
sim_ops                                    1200000007                       # Number of ops (including micro ops) simulated
system.voltage_domain.voltage                       1                       # Voltage in Volts
system.clk_domain.clock                          1000                       # Clock period in ticks
system.mem_ctrls0.pwrStateResidencyTicks::UNDEFINED 310860428067999                       # Cumulative time (in ticks) in various power states
system.mem_ctrls0.bytes_read::cpu.inst             64                       # Number of bytes read from this memory
system.mem_ctrls0.bytes_read::switch_cpus.inst        24960                       # Number of bytes read from this memory
system.mem_ctrls0.bytes_read::switch_cpus.data      2625152                       # Number of bytes read from this memory
system.mem_ctrls0.bytes_read::switch_cpus_1.inst         8256                       # Number of bytes read from this memory
system.mem_ctrls0.bytes_read::switch_cpus_1.data       343680                       # Number of bytes read from this memory
system.mem_ctrls0.bytes_read::total           3002112                       # Number of bytes read from this memory
system.mem_ctrls0.bytes_inst_read::cpu.inst           64                       # Number of instructions bytes read from this memory
system.mem_ctrls0.bytes_inst_read::switch_cpus.inst        24960                       # Number of instructions bytes read from this memory
system.mem_ctrls0.bytes_inst_read::switch_cpus_1.inst         8256                       # Number of instructions bytes read from this memory
system.mem_ctrls0.bytes_inst_read::total        33280                       # Number of instructions bytes read from this memory
system.mem_ctrls0.bytes_written::writebacks       153216                       # Number of bytes written to this memory
system.mem_ctrls0.bytes_written::total         153216                       # Number of bytes written to this memory
system.mem_ctrls0.num_reads::cpu.inst               1                       # Number of read requests responded to by this memory
system.mem_ctrls0.num_reads::switch_cpus.inst          390                       # Number of read requests responded to by this memory
system.mem_ctrls0.num_reads::switch_cpus.data        41018                       # Number of read requests responded to by this memory
system.mem_ctrls0.num_reads::switch_cpus_1.inst          129                       # Number of read requests responded to by this memory
system.mem_ctrls0.num_reads::switch_cpus_1.data         5370                       # Number of read requests responded to by this memory
system.mem_ctrls0.num_reads::total              46908                       # Number of read requests responded to by this memory
system.mem_ctrls0.num_writes::writebacks         2394                       # Number of write requests responded to by this memory
system.mem_ctrls0.num_writes::total              2394                       # Number of write requests responded to by this memory
system.mem_ctrls0.bw_read::cpu.inst                63                       # Total read bandwidth from this memory (bytes/s)
system.mem_ctrls0.bw_read::switch_cpus.inst        24651                       # Total read bandwidth from this memory (bytes/s)
system.mem_ctrls0.bw_read::switch_cpus.data      2592624                       # Total read bandwidth from this memory (bytes/s)
system.mem_ctrls0.bw_read::switch_cpus_1.inst         8154                       # Total read bandwidth from this memory (bytes/s)
system.mem_ctrls0.bw_read::switch_cpus_1.data       339422                       # Total read bandwidth from this memory (bytes/s)
system.mem_ctrls0.bw_read::total              2964914                       # Total read bandwidth from this memory (bytes/s)
system.mem_ctrls0.bw_inst_read::cpu.inst           63                       # Instruction read bandwidth from this memory (bytes/s)
system.mem_ctrls0.bw_inst_read::switch_cpus.inst        24651                       # Instruction read bandwidth from this memory (bytes/s)
system.mem_ctrls0.bw_inst_read::switch_cpus_1.inst         8154                       # Instruction read bandwidth from this memory (bytes/s)
system.mem_ctrls0.bw_inst_read::total           32868                       # Instruction read bandwidth from this memory (bytes/s)
system.mem_ctrls0.bw_write::writebacks         151318                       # Write bandwidth from this memory (bytes/s)
system.mem_ctrls0.bw_write::total              151318                       # Write bandwidth from this memory (bytes/s)
system.mem_ctrls0.bw_total::writebacks         151318                       # Total bandwidth to/from this memory (bytes/s)
system.mem_ctrls0.bw_total::cpu.inst               63                       # Total bandwidth to/from this memory (bytes/s)
system.mem_ctrls0.bw_total::switch_cpus.inst        24651                       # Total bandwidth to/from this memory (bytes/s)
system.mem_ctrls0.bw_total::switch_cpus.data      2592624                       # Total bandwidth to/from this memory (bytes/s)
system.mem_ctrls0.bw_total::switch_cpus_1.inst         8154                       # Total bandwidth to/from this memory (bytes/s)
system.mem_ctrls0.bw_total::switch_cpus_1.data       339422                       # Total bandwidth to/from this memory (bytes/s)
system.mem_ctrls0.bw_total::total             3116231                       # Total bandwidth to/from this memory (bytes/s)
system.mem_ctrls0.readReqs                      46908                       # Number of read requests accepted
system.mem_ctrls0.writeReqs                      2394                       # Number of write requests accepted
system.mem_ctrls0.readBursts                    46908                       # Number of DRAM read bursts, including those serviced by the write queue
system.mem_ctrls0.writeBursts                    2394                       # Number of DRAM write bursts, including those merged in the write queue
system.mem_ctrls0.bytesReadDRAM               2993344                       # Total number of bytes read from DRAM
system.mem_ctrls0.bytesReadWrQ                   8768                       # Total number of bytes read from write queue
system.mem_ctrls0.bytesWritten                 151168                       # Total number of bytes written to DRAM
system.mem_ctrls0.bytesReadSys                3002112                       # Total read bytes from the system interface side
system.mem_ctrls0.bytesWrittenSys              153216                       # Total written bytes from the system interface side
system.mem_ctrls0.servicedByWrQ                   137                       # Number of DRAM read bursts serviced by the write queue
system.mem_ctrls0.mergedWrBursts                    0                       # Number of DRAM write bursts merged with an existing one
system.mem_ctrls0.neitherReadNorWriteReqs            0                       # Number of requests that are neither read nor write
system.mem_ctrls0.perBankRdBursts::0             3133                       # Per bank write bursts
system.mem_ctrls0.perBankRdBursts::1             3024                       # Per bank write bursts
system.mem_ctrls0.perBankRdBursts::2             2865                       # Per bank write bursts
system.mem_ctrls0.perBankRdBursts::3             2764                       # Per bank write bursts
system.mem_ctrls0.perBankRdBursts::4             2686                       # Per bank write bursts
system.mem_ctrls0.perBankRdBursts::5             2772                       # Per bank write bursts
system.mem_ctrls0.perBankRdBursts::6             2995                       # Per bank write bursts
system.mem_ctrls0.perBankRdBursts::7             3192                       # Per bank write bursts
system.mem_ctrls0.perBankRdBursts::8             3353                       # Per bank write bursts
system.mem_ctrls0.perBankRdBursts::9             3262                       # Per bank write bursts
system.mem_ctrls0.perBankRdBursts::10            2851                       # Per bank write bursts
system.mem_ctrls0.perBankRdBursts::11            2592                       # Per bank write bursts
system.mem_ctrls0.perBankRdBursts::12            2696                       # Per bank write bursts
system.mem_ctrls0.perBankRdBursts::13            2699                       # Per bank write bursts
system.mem_ctrls0.perBankRdBursts::14            2964                       # Per bank write bursts
system.mem_ctrls0.perBankRdBursts::15            2923                       # Per bank write bursts
system.mem_ctrls0.perBankWrBursts::0              318                       # Per bank write bursts
system.mem_ctrls0.perBankWrBursts::1              285                       # Per bank write bursts
system.mem_ctrls0.perBankWrBursts::2              115                       # Per bank write bursts
system.mem_ctrls0.perBankWrBursts::3               85                       # Per bank write bursts
system.mem_ctrls0.perBankWrBursts::4               69                       # Per bank write bursts
system.mem_ctrls0.perBankWrBursts::5               15                       # Per bank write bursts
system.mem_ctrls0.perBankWrBursts::6              130                       # Per bank write bursts
system.mem_ctrls0.perBankWrBursts::7              134                       # Per bank write bursts
system.mem_ctrls0.perBankWrBursts::8              188                       # Per bank write bursts
system.mem_ctrls0.perBankWrBursts::9              256                       # Per bank write bursts
system.mem_ctrls0.perBankWrBursts::10             122                       # Per bank write bursts
system.mem_ctrls0.perBankWrBursts::11              47                       # Per bank write bursts
system.mem_ctrls0.perBankWrBursts::12              43                       # Per bank write bursts
system.mem_ctrls0.perBankWrBursts::13              36                       # Per bank write bursts
system.mem_ctrls0.perBankWrBursts::14             232                       # Per bank write bursts
system.mem_ctrls0.perBankWrBursts::15             287                       # Per bank write bursts
system.mem_ctrls0.numRdRetry                        0                       # Number of times read queue was full causing retry
system.mem_ctrls0.numWrRetry                        0                       # Number of times write queue was full causing retry
system.mem_ctrls0.totGap                 1012546121985                       # Total gap between requests
system.mem_ctrls0.readPktSize::0                    0                       # Read request sizes (log2)
system.mem_ctrls0.readPktSize::1                    0                       # Read request sizes (log2)
system.mem_ctrls0.readPktSize::2                    0                       # Read request sizes (log2)
system.mem_ctrls0.readPktSize::3                    0                       # Read request sizes (log2)
system.mem_ctrls0.readPktSize::4                    0                       # Read request sizes (log2)
system.mem_ctrls0.readPktSize::5                    0                       # Read request sizes (log2)
system.mem_ctrls0.readPktSize::6                46908                       # Read request sizes (log2)
system.mem_ctrls0.writePktSize::0                   0                       # Write request sizes (log2)
system.mem_ctrls0.writePktSize::1                   0                       # Write request sizes (log2)
system.mem_ctrls0.writePktSize::2                   0                       # Write request sizes (log2)
system.mem_ctrls0.writePktSize::3                   0                       # Write request sizes (log2)
system.mem_ctrls0.writePktSize::4                   0                       # Write request sizes (log2)
system.mem_ctrls0.writePktSize::5                   0                       # Write request sizes (log2)
system.mem_ctrls0.writePktSize::6                2394                       # Write request sizes (log2)
system.mem_ctrls0.rdQLenPdf::0                  45725                       # What read queue length does an incoming req see
system.mem_ctrls0.rdQLenPdf::1                   1040                       # What read queue length does an incoming req see
system.mem_ctrls0.rdQLenPdf::2                      4                       # What read queue length does an incoming req see
system.mem_ctrls0.rdQLenPdf::3                      2                       # What read queue length does an incoming req see
system.mem_ctrls0.rdQLenPdf::4                      0                       # What read queue length does an incoming req see
system.mem_ctrls0.rdQLenPdf::5                      0                       # What read queue length does an incoming req see
system.mem_ctrls0.rdQLenPdf::6                      0                       # What read queue length does an incoming req see
system.mem_ctrls0.rdQLenPdf::7                      0                       # What read queue length does an incoming req see
system.mem_ctrls0.rdQLenPdf::8                      0                       # What read queue length does an incoming req see
system.mem_ctrls0.rdQLenPdf::9                      0                       # What read queue length does an incoming req see
system.mem_ctrls0.rdQLenPdf::10                     0                       # What read queue length does an incoming req see
system.mem_ctrls0.rdQLenPdf::11                     0                       # What read queue length does an incoming req see
system.mem_ctrls0.rdQLenPdf::12                     0                       # What read queue length does an incoming req see
system.mem_ctrls0.rdQLenPdf::13                     0                       # What read queue length does an incoming req see
system.mem_ctrls0.rdQLenPdf::14                     0                       # What read queue length does an incoming req see
system.mem_ctrls0.rdQLenPdf::15                     0                       # What read queue length does an incoming req see
system.mem_ctrls0.rdQLenPdf::16                     0                       # What read queue length does an incoming req see
system.mem_ctrls0.rdQLenPdf::17                     0                       # What read queue length does an incoming req see
system.mem_ctrls0.rdQLenPdf::18                     0                       # What read queue length does an incoming req see
system.mem_ctrls0.rdQLenPdf::19                     0                       # What read queue length does an incoming req see
system.mem_ctrls0.rdQLenPdf::20                     0                       # What read queue length does an incoming req see
system.mem_ctrls0.rdQLenPdf::21                     0                       # What read queue length does an incoming req see
system.mem_ctrls0.rdQLenPdf::22                     0                       # What read queue length does an incoming req see
system.mem_ctrls0.rdQLenPdf::23                     0                       # What read queue length does an incoming req see
system.mem_ctrls0.rdQLenPdf::24                     0                       # What read queue length does an incoming req see
system.mem_ctrls0.rdQLenPdf::25                     0                       # What read queue length does an incoming req see
system.mem_ctrls0.rdQLenPdf::26                     0                       # What read queue length does an incoming req see
system.mem_ctrls0.rdQLenPdf::27                     0                       # What read queue length does an incoming req see
system.mem_ctrls0.rdQLenPdf::28                     0                       # What read queue length does an incoming req see
system.mem_ctrls0.rdQLenPdf::29                     0                       # What read queue length does an incoming req see
system.mem_ctrls0.rdQLenPdf::30                     0                       # What read queue length does an incoming req see
system.mem_ctrls0.rdQLenPdf::31                     0                       # What read queue length does an incoming req see
system.mem_ctrls0.wrQLenPdf::0                      2                       # What write queue length does an incoming req see
system.mem_ctrls0.wrQLenPdf::1                      2                       # What write queue length does an incoming req see
system.mem_ctrls0.wrQLenPdf::2                      2                       # What write queue length does an incoming req see
system.mem_ctrls0.wrQLenPdf::3                      2                       # What write queue length does an incoming req see
system.mem_ctrls0.wrQLenPdf::4                      2                       # What write queue length does an incoming req see
system.mem_ctrls0.wrQLenPdf::5                      2                       # What write queue length does an incoming req see
system.mem_ctrls0.wrQLenPdf::6                      2                       # What write queue length does an incoming req see
system.mem_ctrls0.wrQLenPdf::7                      2                       # What write queue length does an incoming req see
system.mem_ctrls0.wrQLenPdf::8                      2                       # What write queue length does an incoming req see
system.mem_ctrls0.wrQLenPdf::9                      2                       # What write queue length does an incoming req see
system.mem_ctrls0.wrQLenPdf::10                     2                       # What write queue length does an incoming req see
system.mem_ctrls0.wrQLenPdf::11                     2                       # What write queue length does an incoming req see
system.mem_ctrls0.wrQLenPdf::12                     2                       # What write queue length does an incoming req see
system.mem_ctrls0.wrQLenPdf::13                     2                       # What write queue length does an incoming req see
system.mem_ctrls0.wrQLenPdf::14                     2                       # What write queue length does an incoming req see
system.mem_ctrls0.wrQLenPdf::15                    79                       # What write queue length does an incoming req see
system.mem_ctrls0.wrQLenPdf::16                    83                       # What write queue length does an incoming req see
system.mem_ctrls0.wrQLenPdf::17                   118                       # What write queue length does an incoming req see
system.mem_ctrls0.wrQLenPdf::18                   136                       # What write queue length does an incoming req see
system.mem_ctrls0.wrQLenPdf::19                   139                       # What write queue length does an incoming req see
system.mem_ctrls0.wrQLenPdf::20                   137                       # What write queue length does an incoming req see
system.mem_ctrls0.wrQLenPdf::21                   141                       # What write queue length does an incoming req see
system.mem_ctrls0.wrQLenPdf::22                   139                       # What write queue length does an incoming req see
system.mem_ctrls0.wrQLenPdf::23                   144                       # What write queue length does an incoming req see
system.mem_ctrls0.wrQLenPdf::24                   137                       # What write queue length does an incoming req see
system.mem_ctrls0.wrQLenPdf::25                   139                       # What write queue length does an incoming req see
system.mem_ctrls0.wrQLenPdf::26                   137                       # What write queue length does an incoming req see
system.mem_ctrls0.wrQLenPdf::27                   140                       # What write queue length does an incoming req see
system.mem_ctrls0.wrQLenPdf::28                   141                       # What write queue length does an incoming req see
system.mem_ctrls0.wrQLenPdf::29                   138                       # What write queue length does an incoming req see
system.mem_ctrls0.wrQLenPdf::30                   141                       # What write queue length does an incoming req see
system.mem_ctrls0.wrQLenPdf::31                   138                       # What write queue length does an incoming req see
system.mem_ctrls0.wrQLenPdf::32                   135                       # What write queue length does an incoming req see
system.mem_ctrls0.wrQLenPdf::33                     2                       # What write queue length does an incoming req see
system.mem_ctrls0.wrQLenPdf::34                     0                       # What write queue length does an incoming req see
system.mem_ctrls0.wrQLenPdf::35                     0                       # What write queue length does an incoming req see
system.mem_ctrls0.wrQLenPdf::36                     0                       # What write queue length does an incoming req see
system.mem_ctrls0.wrQLenPdf::37                     0                       # What write queue length does an incoming req see
system.mem_ctrls0.wrQLenPdf::38                     0                       # What write queue length does an incoming req see
system.mem_ctrls0.wrQLenPdf::39                     0                       # What write queue length does an incoming req see
system.mem_ctrls0.wrQLenPdf::40                     0                       # What write queue length does an incoming req see
system.mem_ctrls0.wrQLenPdf::41                     0                       # What write queue length does an incoming req see
system.mem_ctrls0.wrQLenPdf::42                     0                       # What write queue length does an incoming req see
system.mem_ctrls0.wrQLenPdf::43                     0                       # What write queue length does an incoming req see
system.mem_ctrls0.wrQLenPdf::44                     0                       # What write queue length does an incoming req see
system.mem_ctrls0.wrQLenPdf::45                     0                       # What write queue length does an incoming req see
system.mem_ctrls0.wrQLenPdf::46                     0                       # What write queue length does an incoming req see
system.mem_ctrls0.wrQLenPdf::47                     0                       # What write queue length does an incoming req see
system.mem_ctrls0.wrQLenPdf::48                     0                       # What write queue length does an incoming req see
system.mem_ctrls0.wrQLenPdf::49                     0                       # What write queue length does an incoming req see
system.mem_ctrls0.wrQLenPdf::50                     0                       # What write queue length does an incoming req see
system.mem_ctrls0.wrQLenPdf::51                     0                       # What write queue length does an incoming req see
system.mem_ctrls0.wrQLenPdf::52                     0                       # What write queue length does an incoming req see
system.mem_ctrls0.wrQLenPdf::53                     0                       # What write queue length does an incoming req see
system.mem_ctrls0.wrQLenPdf::54                     0                       # What write queue length does an incoming req see
system.mem_ctrls0.wrQLenPdf::55                     0                       # What write queue length does an incoming req see
system.mem_ctrls0.wrQLenPdf::56                     0                       # What write queue length does an incoming req see
system.mem_ctrls0.wrQLenPdf::57                     0                       # What write queue length does an incoming req see
system.mem_ctrls0.wrQLenPdf::58                     0                       # What write queue length does an incoming req see
system.mem_ctrls0.wrQLenPdf::59                     0                       # What write queue length does an incoming req see
system.mem_ctrls0.wrQLenPdf::60                     0                       # What write queue length does an incoming req see
system.mem_ctrls0.wrQLenPdf::61                     0                       # What write queue length does an incoming req see
system.mem_ctrls0.wrQLenPdf::62                     0                       # What write queue length does an incoming req see
system.mem_ctrls0.wrQLenPdf::63                     0                       # What write queue length does an incoming req see
system.mem_ctrls0.bytesPerActivate::samples        23982                       # Bytes accessed per row activation
system.mem_ctrls0.bytesPerActivate::mean   131.103661                       # Bytes accessed per row activation
system.mem_ctrls0.bytesPerActivate::gmean   115.112015                       # Bytes accessed per row activation
system.mem_ctrls0.bytesPerActivate::stdev   112.798389                       # Bytes accessed per row activation
system.mem_ctrls0.bytesPerActivate::0-127         5546     23.13%     23.13% # Bytes accessed per row activation
system.mem_ctrls0.bytesPerActivate::128-255        17590     73.35%     96.47% # Bytes accessed per row activation
system.mem_ctrls0.bytesPerActivate::256-383          228      0.95%     97.42% # Bytes accessed per row activation
system.mem_ctrls0.bytesPerActivate::384-511          124      0.52%     97.94% # Bytes accessed per row activation
system.mem_ctrls0.bytesPerActivate::512-639           97      0.40%     98.34% # Bytes accessed per row activation
system.mem_ctrls0.bytesPerActivate::640-767           84      0.35%     98.69% # Bytes accessed per row activation
system.mem_ctrls0.bytesPerActivate::768-895           56      0.23%     98.93% # Bytes accessed per row activation
system.mem_ctrls0.bytesPerActivate::896-1023           27      0.11%     99.04% # Bytes accessed per row activation
system.mem_ctrls0.bytesPerActivate::1024-1151          230      0.96%    100.00% # Bytes accessed per row activation
system.mem_ctrls0.bytesPerActivate::total        23982                       # Bytes accessed per row activation
system.mem_ctrls0.rdPerTurnAround::samples          136                       # Reads before turning the bus around for writes
system.mem_ctrls0.rdPerTurnAround::mean    343.904412                       # Reads before turning the bus around for writes
system.mem_ctrls0.rdPerTurnAround::stdev  3343.173814                       # Reads before turning the bus around for writes
system.mem_ctrls0.rdPerTurnAround::0-2047          135     99.26%     99.26% # Reads before turning the bus around for writes
system.mem_ctrls0.rdPerTurnAround::38912-40959            1      0.74%    100.00% # Reads before turning the bus around for writes
system.mem_ctrls0.rdPerTurnAround::total          136                       # Reads before turning the bus around for writes
system.mem_ctrls0.wrPerTurnAround::samples          136                       # Writes before turning the bus around for reads
system.mem_ctrls0.wrPerTurnAround::mean     17.367647                       # Writes before turning the bus around for reads
system.mem_ctrls0.wrPerTurnAround::gmean    17.325741                       # Writes before turning the bus around for reads
system.mem_ctrls0.wrPerTurnAround::stdev     1.215997                       # Writes before turning the bus around for reads
system.mem_ctrls0.wrPerTurnAround::16              54     39.71%     39.71% # Writes before turning the bus around for reads
system.mem_ctrls0.wrPerTurnAround::17               1      0.74%     40.44% # Writes before turning the bus around for reads
system.mem_ctrls0.wrPerTurnAround::18              62     45.59%     86.03% # Writes before turning the bus around for reads
system.mem_ctrls0.wrPerTurnAround::19              17     12.50%     98.53% # Writes before turning the bus around for reads
system.mem_ctrls0.wrPerTurnAround::20               1      0.74%     99.26% # Writes before turning the bus around for reads
system.mem_ctrls0.wrPerTurnAround::22               1      0.74%    100.00% # Writes before turning the bus around for reads
system.mem_ctrls0.wrPerTurnAround::total          136                       # Writes before turning the bus around for reads
system.mem_ctrls0.totQLat                  9412395049                       # Total ticks spent queuing
system.mem_ctrls0.totMemAccLat            10289351299                       # Total ticks spent from burst creation until serviced by the DRAM
system.mem_ctrls0.totBusLat                 233855000                       # Total ticks spent in databus transfers
system.mem_ctrls0.avgQLat                   201244.25                       # Average queueing delay per DRAM burst
system.mem_ctrls0.avgBusLat                   5000.00                       # Average bus latency per DRAM burst
system.mem_ctrls0.avgMemAccLat              219994.25                       # Average memory access latency per DRAM burst
system.mem_ctrls0.avgRdBW                        2.96                       # Average DRAM read bandwidth in MiByte/s
system.mem_ctrls0.avgWrBW                        0.15                       # Average achieved write bandwidth in MiByte/s
system.mem_ctrls0.avgRdBWSys                     2.96                       # Average system read bandwidth in MiByte/s
system.mem_ctrls0.avgWrBWSys                     0.15                       # Average system write bandwidth in MiByte/s
system.mem_ctrls0.peakBW                     12800.00                       # Theoretical peak bandwidth in MiByte/s
system.mem_ctrls0.busUtil                        0.02                       # Data bus utilization in percentage
system.mem_ctrls0.busUtilRead                    0.02                       # Data bus utilization in percentage for reads
system.mem_ctrls0.busUtilWrite                   0.00                       # Data bus utilization in percentage for writes
system.mem_ctrls0.avgRdQLen                      1.00                       # Average read queue length when enqueuing
system.mem_ctrls0.avgWrQLen                      8.35                       # Average write queue length when enqueuing
system.mem_ctrls0.readRowHits                   23607                       # Number of row buffer hits during reads
system.mem_ctrls0.writeRowHits                   1541                       # Number of row buffer hits during writes
system.mem_ctrls0.readRowHitRate                50.47                       # Row buffer hit rate for reads
system.mem_ctrls0.writeRowHitRate               64.37                       # Row buffer hit rate for writes
system.mem_ctrls0.avgGap                  20537627.72                       # Average gap between requests
system.mem_ctrls0.pageHitRate                   51.15                       # Row buffer hit rate, read and write combined
system.mem_ctrls0_0.actEnergy                89892600                       # Energy for activate commands per rank (pJ)
system.mem_ctrls0_0.preEnergy                47767665                       # Energy for precharge commands per rank (pJ)
system.mem_ctrls0_0.readEnergy              167297340                       # Energy for read commands per rank (pJ)
system.mem_ctrls0_0.writeEnergy               6008220                       # Energy for write commands per rank (pJ)
system.mem_ctrls0_0.refreshEnergy        15772891680.000004                       # Energy for refresh commands per rank (pJ)
system.mem_ctrls0_0.actBackEnergy          3395419890                       # Energy for active background per rank (pJ)
system.mem_ctrls0_0.preBackEnergy          1044766560                       # Energy for precharge background per rank (pJ)
system.mem_ctrls0_0.actPowerDownEnergy    30977151030                       # Energy for active power-down per rank (pJ)
system.mem_ctrls0_0.prePowerDownEnergy    24478110720                       # Energy for precharge power-down per rank (pJ)
system.mem_ctrls0_0.selfRefreshEnergy    213384199245                       # Energy for self refresh per rank (pJ)
system.mem_ctrls0_0.totalEnergy          289363623210                       # Total energy per rank (pJ)
system.mem_ctrls0_0.averagePower           285.778197                       # Core power per rank (mW)
system.mem_ctrls0_0.totalIdleTime        1002379361959                       # Total Idle time Per DRAM Rank
system.mem_ctrls0_0.memoryStateTime::IDLE   2185194118                       # Time in different power states
system.mem_ctrls0_0.memoryStateTime::REF   6720138000                       # Time in different power states
system.mem_ctrls0_0.memoryStateTime::SREF 870701687536                       # Time in different power states
system.mem_ctrls0_0.memoryStateTime::PRE_PDN  63745511483                       # Time in different power states
system.mem_ctrls0_0.memoryStateTime::ACT   1261489513                       # Time in different power states
system.mem_ctrls0_0.memoryStateTime::ACT_PDN  67932162940                       # Time in different power states
system.mem_ctrls0_1.actEnergy                81360300                       # Energy for activate commands per rank (pJ)
system.mem_ctrls0_1.preEnergy                43244025                       # Energy for precharge commands per rank (pJ)
system.mem_ctrls0_1.readEnergy              166647600                       # Energy for read commands per rank (pJ)
system.mem_ctrls0_1.writeEnergy               6321420                       # Energy for write commands per rank (pJ)
system.mem_ctrls0_1.refreshEnergy        16883546160.000004                       # Energy for refresh commands per rank (pJ)
system.mem_ctrls0_1.actBackEnergy          3577094850                       # Energy for active background per rank (pJ)
system.mem_ctrls0_1.preBackEnergy          1133343840                       # Energy for precharge background per rank (pJ)
system.mem_ctrls0_1.actPowerDownEnergy    32229885060                       # Energy for active power-down per rank (pJ)
system.mem_ctrls0_1.prePowerDownEnergy    26454780480                       # Energy for precharge power-down per rank (pJ)
system.mem_ctrls0_1.selfRefreshEnergy    211760525130                       # Energy for self refresh per rank (pJ)
system.mem_ctrls0_1.totalEnergy          292337027355                       # Total energy per rank (pJ)
system.mem_ctrls0_1.averagePower           288.714759                       # Core power per rank (mW)
system.mem_ctrls0_1.totalIdleTime        1001749712598                       # Total Idle time Per DRAM Rank
system.mem_ctrls0_1.memoryStateTime::IDLE   2380501230                       # Time in different power states
system.mem_ctrls0_1.memoryStateTime::REF   7194530000                       # Time in different power states
system.mem_ctrls0_1.memoryStateTime::SREF 862177433289                       # Time in different power states
system.mem_ctrls0_1.memoryStateTime::PRE_PDN  68892692252                       # Time in different power states
system.mem_ctrls0_1.memoryStateTime::ACT   1221274461                       # Time in different power states
system.mem_ctrls0_1.memoryStateTime::ACT_PDN  70679752358                       # Time in different power states
system.mem_ctrls1.pwrStateResidencyTicks::UNDEFINED 310860428067999                       # Cumulative time (in ticks) in various power states
system.mem_ctrls1.bytes_read::cpu.inst            128                       # Number of bytes read from this memory
system.mem_ctrls1.bytes_read::switch_cpus.inst        25024                       # Number of bytes read from this memory
system.mem_ctrls1.bytes_read::switch_cpus.data      2623168                       # Number of bytes read from this memory
system.mem_ctrls1.bytes_read::switch_cpus_1.inst         7744                       # Number of bytes read from this memory
system.mem_ctrls1.bytes_read::switch_cpus_1.data       344256                       # Number of bytes read from this memory
system.mem_ctrls1.bytes_read::total           3000320                       # Number of bytes read from this memory
system.mem_ctrls1.bytes_inst_read::cpu.inst          128                       # Number of instructions bytes read from this memory
system.mem_ctrls1.bytes_inst_read::switch_cpus.inst        25024                       # Number of instructions bytes read from this memory
system.mem_ctrls1.bytes_inst_read::switch_cpus_1.inst         7744                       # Number of instructions bytes read from this memory
system.mem_ctrls1.bytes_inst_read::total        32896                       # Number of instructions bytes read from this memory
system.mem_ctrls1.bytes_written::writebacks       153152                       # Number of bytes written to this memory
system.mem_ctrls1.bytes_written::total         153152                       # Number of bytes written to this memory
system.mem_ctrls1.num_reads::cpu.inst               2                       # Number of read requests responded to by this memory
system.mem_ctrls1.num_reads::switch_cpus.inst          391                       # Number of read requests responded to by this memory
system.mem_ctrls1.num_reads::switch_cpus.data        40987                       # Number of read requests responded to by this memory
system.mem_ctrls1.num_reads::switch_cpus_1.inst          121                       # Number of read requests responded to by this memory
system.mem_ctrls1.num_reads::switch_cpus_1.data         5379                       # Number of read requests responded to by this memory
system.mem_ctrls1.num_reads::total              46880                       # Number of read requests responded to by this memory
system.mem_ctrls1.num_writes::writebacks         2393                       # Number of write requests responded to by this memory
system.mem_ctrls1.num_writes::total              2393                       # Number of write requests responded to by this memory
system.mem_ctrls1.bw_read::cpu.inst               126                       # Total read bandwidth from this memory (bytes/s)
system.mem_ctrls1.bw_read::switch_cpus.inst        24714                       # Total read bandwidth from this memory (bytes/s)
system.mem_ctrls1.bw_read::switch_cpus.data      2590665                       # Total read bandwidth from this memory (bytes/s)
system.mem_ctrls1.bw_read::switch_cpus_1.inst         7648                       # Total read bandwidth from this memory (bytes/s)
system.mem_ctrls1.bw_read::switch_cpus_1.data       339990                       # Total read bandwidth from this memory (bytes/s)
system.mem_ctrls1.bw_read::total              2963144                       # Total read bandwidth from this memory (bytes/s)
system.mem_ctrls1.bw_inst_read::cpu.inst          126                       # Instruction read bandwidth from this memory (bytes/s)
system.mem_ctrls1.bw_inst_read::switch_cpus.inst        24714                       # Instruction read bandwidth from this memory (bytes/s)
system.mem_ctrls1.bw_inst_read::switch_cpus_1.inst         7648                       # Instruction read bandwidth from this memory (bytes/s)
system.mem_ctrls1.bw_inst_read::total           32488                       # Instruction read bandwidth from this memory (bytes/s)
system.mem_ctrls1.bw_write::writebacks         151254                       # Write bandwidth from this memory (bytes/s)
system.mem_ctrls1.bw_write::total              151254                       # Write bandwidth from this memory (bytes/s)
system.mem_ctrls1.bw_total::writebacks         151254                       # Total bandwidth to/from this memory (bytes/s)
system.mem_ctrls1.bw_total::cpu.inst              126                       # Total bandwidth to/from this memory (bytes/s)
system.mem_ctrls1.bw_total::switch_cpus.inst        24714                       # Total bandwidth to/from this memory (bytes/s)
system.mem_ctrls1.bw_total::switch_cpus.data      2590665                       # Total bandwidth to/from this memory (bytes/s)
system.mem_ctrls1.bw_total::switch_cpus_1.inst         7648                       # Total bandwidth to/from this memory (bytes/s)
system.mem_ctrls1.bw_total::switch_cpus_1.data       339990                       # Total bandwidth to/from this memory (bytes/s)
system.mem_ctrls1.bw_total::total             3114398                       # Total bandwidth to/from this memory (bytes/s)
system.mem_ctrls1.readReqs                      46880                       # Number of read requests accepted
system.mem_ctrls1.writeReqs                      2393                       # Number of write requests accepted
system.mem_ctrls1.readBursts                    46880                       # Number of DRAM read bursts, including those serviced by the write queue
system.mem_ctrls1.writeBursts                    2393                       # Number of DRAM write bursts, including those merged in the write queue
system.mem_ctrls1.bytesReadDRAM               2991104                       # Total number of bytes read from DRAM
system.mem_ctrls1.bytesReadWrQ                   9216                       # Total number of bytes read from write queue
system.mem_ctrls1.bytesWritten                 152128                       # Total number of bytes written to DRAM
system.mem_ctrls1.bytesReadSys                3000320                       # Total read bytes from the system interface side
system.mem_ctrls1.bytesWrittenSys              153152                       # Total written bytes from the system interface side
system.mem_ctrls1.servicedByWrQ                   144                       # Number of DRAM read bursts serviced by the write queue
system.mem_ctrls1.mergedWrBursts                    0                       # Number of DRAM write bursts merged with an existing one
system.mem_ctrls1.neitherReadNorWriteReqs            0                       # Number of requests that are neither read nor write
system.mem_ctrls1.perBankRdBursts::0             3125                       # Per bank write bursts
system.mem_ctrls1.perBankRdBursts::1             3036                       # Per bank write bursts
system.mem_ctrls1.perBankRdBursts::2             2857                       # Per bank write bursts
system.mem_ctrls1.perBankRdBursts::3             2751                       # Per bank write bursts
system.mem_ctrls1.perBankRdBursts::4             2671                       # Per bank write bursts
system.mem_ctrls1.perBankRdBursts::5             2773                       # Per bank write bursts
system.mem_ctrls1.perBankRdBursts::6             3027                       # Per bank write bursts
system.mem_ctrls1.perBankRdBursts::7             3164                       # Per bank write bursts
system.mem_ctrls1.perBankRdBursts::8             3384                       # Per bank write bursts
system.mem_ctrls1.perBankRdBursts::9             3274                       # Per bank write bursts
system.mem_ctrls1.perBankRdBursts::10            2856                       # Per bank write bursts
system.mem_ctrls1.perBankRdBursts::11            2572                       # Per bank write bursts
system.mem_ctrls1.perBankRdBursts::12            2697                       # Per bank write bursts
system.mem_ctrls1.perBankRdBursts::13            2692                       # Per bank write bursts
system.mem_ctrls1.perBankRdBursts::14            2921                       # Per bank write bursts
system.mem_ctrls1.perBankRdBursts::15            2936                       # Per bank write bursts
system.mem_ctrls1.perBankWrBursts::0              358                       # Per bank write bursts
system.mem_ctrls1.perBankWrBursts::1              279                       # Per bank write bursts
system.mem_ctrls1.perBankWrBursts::2              117                       # Per bank write bursts
system.mem_ctrls1.perBankWrBursts::3               85                       # Per bank write bursts
system.mem_ctrls1.perBankWrBursts::4               68                       # Per bank write bursts
system.mem_ctrls1.perBankWrBursts::5               12                       # Per bank write bursts
system.mem_ctrls1.perBankWrBursts::6              126                       # Per bank write bursts
system.mem_ctrls1.perBankWrBursts::7              130                       # Per bank write bursts
system.mem_ctrls1.perBankWrBursts::8              199                       # Per bank write bursts
system.mem_ctrls1.perBankWrBursts::9              250                       # Per bank write bursts
system.mem_ctrls1.perBankWrBursts::10             124                       # Per bank write bursts
system.mem_ctrls1.perBankWrBursts::11              41                       # Per bank write bursts
system.mem_ctrls1.perBankWrBursts::12              48                       # Per bank write bursts
system.mem_ctrls1.perBankWrBursts::13              32                       # Per bank write bursts
system.mem_ctrls1.perBankWrBursts::14             225                       # Per bank write bursts
system.mem_ctrls1.perBankWrBursts::15             283                       # Per bank write bursts
system.mem_ctrls1.numRdRetry                        0                       # Number of times read queue was full causing retry
system.mem_ctrls1.numWrRetry                        0                       # Number of times write queue was full causing retry
system.mem_ctrls1.totGap                 1012545974466                       # Total gap between requests
system.mem_ctrls1.readPktSize::0                    0                       # Read request sizes (log2)
system.mem_ctrls1.readPktSize::1                    0                       # Read request sizes (log2)
system.mem_ctrls1.readPktSize::2                    0                       # Read request sizes (log2)
system.mem_ctrls1.readPktSize::3                    0                       # Read request sizes (log2)
system.mem_ctrls1.readPktSize::4                    0                       # Read request sizes (log2)
system.mem_ctrls1.readPktSize::5                    0                       # Read request sizes (log2)
system.mem_ctrls1.readPktSize::6                46880                       # Read request sizes (log2)
system.mem_ctrls1.writePktSize::0                   0                       # Write request sizes (log2)
system.mem_ctrls1.writePktSize::1                   0                       # Write request sizes (log2)
system.mem_ctrls1.writePktSize::2                   0                       # Write request sizes (log2)
system.mem_ctrls1.writePktSize::3                   0                       # Write request sizes (log2)
system.mem_ctrls1.writePktSize::4                   0                       # Write request sizes (log2)
system.mem_ctrls1.writePktSize::5                   0                       # Write request sizes (log2)
system.mem_ctrls1.writePktSize::6                2393                       # Write request sizes (log2)
system.mem_ctrls1.rdQLenPdf::0                  45514                       # What read queue length does an incoming req see
system.mem_ctrls1.rdQLenPdf::1                   1220                       # What read queue length does an incoming req see
system.mem_ctrls1.rdQLenPdf::2                      2                       # What read queue length does an incoming req see
system.mem_ctrls1.rdQLenPdf::3                      0                       # What read queue length does an incoming req see
system.mem_ctrls1.rdQLenPdf::4                      0                       # What read queue length does an incoming req see
system.mem_ctrls1.rdQLenPdf::5                      0                       # What read queue length does an incoming req see
system.mem_ctrls1.rdQLenPdf::6                      0                       # What read queue length does an incoming req see
system.mem_ctrls1.rdQLenPdf::7                      0                       # What read queue length does an incoming req see
system.mem_ctrls1.rdQLenPdf::8                      0                       # What read queue length does an incoming req see
system.mem_ctrls1.rdQLenPdf::9                      0                       # What read queue length does an incoming req see
system.mem_ctrls1.rdQLenPdf::10                     0                       # What read queue length does an incoming req see
system.mem_ctrls1.rdQLenPdf::11                     0                       # What read queue length does an incoming req see
system.mem_ctrls1.rdQLenPdf::12                     0                       # What read queue length does an incoming req see
system.mem_ctrls1.rdQLenPdf::13                     0                       # What read queue length does an incoming req see
system.mem_ctrls1.rdQLenPdf::14                     0                       # What read queue length does an incoming req see
system.mem_ctrls1.rdQLenPdf::15                     0                       # What read queue length does an incoming req see
system.mem_ctrls1.rdQLenPdf::16                     0                       # What read queue length does an incoming req see
system.mem_ctrls1.rdQLenPdf::17                     0                       # What read queue length does an incoming req see
system.mem_ctrls1.rdQLenPdf::18                     0                       # What read queue length does an incoming req see
system.mem_ctrls1.rdQLenPdf::19                     0                       # What read queue length does an incoming req see
system.mem_ctrls1.rdQLenPdf::20                     0                       # What read queue length does an incoming req see
system.mem_ctrls1.rdQLenPdf::21                     0                       # What read queue length does an incoming req see
system.mem_ctrls1.rdQLenPdf::22                     0                       # What read queue length does an incoming req see
system.mem_ctrls1.rdQLenPdf::23                     0                       # What read queue length does an incoming req see
system.mem_ctrls1.rdQLenPdf::24                     0                       # What read queue length does an incoming req see
system.mem_ctrls1.rdQLenPdf::25                     0                       # What read queue length does an incoming req see
system.mem_ctrls1.rdQLenPdf::26                     0                       # What read queue length does an incoming req see
system.mem_ctrls1.rdQLenPdf::27                     0                       # What read queue length does an incoming req see
system.mem_ctrls1.rdQLenPdf::28                     0                       # What read queue length does an incoming req see
system.mem_ctrls1.rdQLenPdf::29                     0                       # What read queue length does an incoming req see
system.mem_ctrls1.rdQLenPdf::30                     0                       # What read queue length does an incoming req see
system.mem_ctrls1.rdQLenPdf::31                     0                       # What read queue length does an incoming req see
system.mem_ctrls1.wrQLenPdf::0                      2                       # What write queue length does an incoming req see
system.mem_ctrls1.wrQLenPdf::1                      2                       # What write queue length does an incoming req see
system.mem_ctrls1.wrQLenPdf::2                      2                       # What write queue length does an incoming req see
system.mem_ctrls1.wrQLenPdf::3                      2                       # What write queue length does an incoming req see
system.mem_ctrls1.wrQLenPdf::4                      2                       # What write queue length does an incoming req see
system.mem_ctrls1.wrQLenPdf::5                      2                       # What write queue length does an incoming req see
system.mem_ctrls1.wrQLenPdf::6                      2                       # What write queue length does an incoming req see
system.mem_ctrls1.wrQLenPdf::7                      2                       # What write queue length does an incoming req see
system.mem_ctrls1.wrQLenPdf::8                      2                       # What write queue length does an incoming req see
system.mem_ctrls1.wrQLenPdf::9                      2                       # What write queue length does an incoming req see
system.mem_ctrls1.wrQLenPdf::10                     2                       # What write queue length does an incoming req see
system.mem_ctrls1.wrQLenPdf::11                     2                       # What write queue length does an incoming req see
system.mem_ctrls1.wrQLenPdf::12                     2                       # What write queue length does an incoming req see
system.mem_ctrls1.wrQLenPdf::13                     2                       # What write queue length does an incoming req see
system.mem_ctrls1.wrQLenPdf::14                     2                       # What write queue length does an incoming req see
system.mem_ctrls1.wrQLenPdf::15                    88                       # What write queue length does an incoming req see
system.mem_ctrls1.wrQLenPdf::16                    93                       # What write queue length does an incoming req see
system.mem_ctrls1.wrQLenPdf::17                   125                       # What write queue length does an incoming req see
system.mem_ctrls1.wrQLenPdf::18                   134                       # What write queue length does an incoming req see
system.mem_ctrls1.wrQLenPdf::19                   136                       # What write queue length does an incoming req see
system.mem_ctrls1.wrQLenPdf::20                   136                       # What write queue length does an incoming req see
system.mem_ctrls1.wrQLenPdf::21                   138                       # What write queue length does an incoming req see
system.mem_ctrls1.wrQLenPdf::22                   136                       # What write queue length does an incoming req see
system.mem_ctrls1.wrQLenPdf::23                   137                       # What write queue length does an incoming req see
system.mem_ctrls1.wrQLenPdf::24                   135                       # What write queue length does an incoming req see
system.mem_ctrls1.wrQLenPdf::25                   140                       # What write queue length does an incoming req see
system.mem_ctrls1.wrQLenPdf::26                   138                       # What write queue length does an incoming req see
system.mem_ctrls1.wrQLenPdf::27                   138                       # What write queue length does an incoming req see
system.mem_ctrls1.wrQLenPdf::28                   138                       # What write queue length does an incoming req see
system.mem_ctrls1.wrQLenPdf::29                   143                       # What write queue length does an incoming req see
system.mem_ctrls1.wrQLenPdf::30                   136                       # What write queue length does an incoming req see
system.mem_ctrls1.wrQLenPdf::31                   136                       # What write queue length does an incoming req see
system.mem_ctrls1.wrQLenPdf::32                   135                       # What write queue length does an incoming req see
system.mem_ctrls1.wrQLenPdf::33                     1                       # What write queue length does an incoming req see
system.mem_ctrls1.wrQLenPdf::34                     0                       # What write queue length does an incoming req see
system.mem_ctrls1.wrQLenPdf::35                     0                       # What write queue length does an incoming req see
system.mem_ctrls1.wrQLenPdf::36                     0                       # What write queue length does an incoming req see
system.mem_ctrls1.wrQLenPdf::37                     0                       # What write queue length does an incoming req see
system.mem_ctrls1.wrQLenPdf::38                     0                       # What write queue length does an incoming req see
system.mem_ctrls1.wrQLenPdf::39                     0                       # What write queue length does an incoming req see
system.mem_ctrls1.wrQLenPdf::40                     0                       # What write queue length does an incoming req see
system.mem_ctrls1.wrQLenPdf::41                     0                       # What write queue length does an incoming req see
system.mem_ctrls1.wrQLenPdf::42                     0                       # What write queue length does an incoming req see
system.mem_ctrls1.wrQLenPdf::43                     0                       # What write queue length does an incoming req see
system.mem_ctrls1.wrQLenPdf::44                     0                       # What write queue length does an incoming req see
system.mem_ctrls1.wrQLenPdf::45                     0                       # What write queue length does an incoming req see
system.mem_ctrls1.wrQLenPdf::46                     0                       # What write queue length does an incoming req see
system.mem_ctrls1.wrQLenPdf::47                     0                       # What write queue length does an incoming req see
system.mem_ctrls1.wrQLenPdf::48                     0                       # What write queue length does an incoming req see
system.mem_ctrls1.wrQLenPdf::49                     0                       # What write queue length does an incoming req see
system.mem_ctrls1.wrQLenPdf::50                     0                       # What write queue length does an incoming req see
system.mem_ctrls1.wrQLenPdf::51                     0                       # What write queue length does an incoming req see
system.mem_ctrls1.wrQLenPdf::52                     0                       # What write queue length does an incoming req see
system.mem_ctrls1.wrQLenPdf::53                     0                       # What write queue length does an incoming req see
system.mem_ctrls1.wrQLenPdf::54                     0                       # What write queue length does an incoming req see
system.mem_ctrls1.wrQLenPdf::55                     0                       # What write queue length does an incoming req see
system.mem_ctrls1.wrQLenPdf::56                     0                       # What write queue length does an incoming req see
system.mem_ctrls1.wrQLenPdf::57                     0                       # What write queue length does an incoming req see
system.mem_ctrls1.wrQLenPdf::58                     0                       # What write queue length does an incoming req see
system.mem_ctrls1.wrQLenPdf::59                     0                       # What write queue length does an incoming req see
system.mem_ctrls1.wrQLenPdf::60                     0                       # What write queue length does an incoming req see
system.mem_ctrls1.wrQLenPdf::61                     0                       # What write queue length does an incoming req see
system.mem_ctrls1.wrQLenPdf::62                     0                       # What write queue length does an incoming req see
system.mem_ctrls1.wrQLenPdf::63                     0                       # What write queue length does an incoming req see
system.mem_ctrls1.bytesPerActivate::samples        23960                       # Bytes accessed per row activation
system.mem_ctrls1.bytesPerActivate::mean   131.162604                       # Bytes accessed per row activation
system.mem_ctrls1.bytesPerActivate::gmean   115.235385                       # Bytes accessed per row activation
system.mem_ctrls1.bytesPerActivate::stdev   112.941698                       # Bytes accessed per row activation
system.mem_ctrls1.bytesPerActivate::0-127         5496     22.94%     22.94% # Bytes accessed per row activation
system.mem_ctrls1.bytesPerActivate::128-255        17617     73.53%     96.46% # Bytes accessed per row activation
system.mem_ctrls1.bytesPerActivate::256-383          237      0.99%     97.45% # Bytes accessed per row activation
system.mem_ctrls1.bytesPerActivate::384-511          134      0.56%     98.01% # Bytes accessed per row activation
system.mem_ctrls1.bytesPerActivate::512-639           90      0.38%     98.39% # Bytes accessed per row activation
system.mem_ctrls1.bytesPerActivate::640-767           72      0.30%     98.69% # Bytes accessed per row activation
system.mem_ctrls1.bytesPerActivate::768-895           42      0.18%     98.86% # Bytes accessed per row activation
system.mem_ctrls1.bytesPerActivate::896-1023           41      0.17%     99.04% # Bytes accessed per row activation
system.mem_ctrls1.bytesPerActivate::1024-1151          231      0.96%    100.00% # Bytes accessed per row activation
system.mem_ctrls1.bytesPerActivate::total        23960                       # Bytes accessed per row activation
system.mem_ctrls1.rdPerTurnAround::samples          136                       # Reads before turning the bus around for writes
system.mem_ctrls1.rdPerTurnAround::mean    343.647059                       # Reads before turning the bus around for writes
system.mem_ctrls1.rdPerTurnAround::stdev  3340.982702                       # Reads before turning the bus around for writes
system.mem_ctrls1.rdPerTurnAround::0-2047          135     99.26%     99.26% # Reads before turning the bus around for writes
system.mem_ctrls1.rdPerTurnAround::38912-40959            1      0.74%    100.00% # Reads before turning the bus around for writes
system.mem_ctrls1.rdPerTurnAround::total          136                       # Reads before turning the bus around for writes
system.mem_ctrls1.wrPerTurnAround::samples          136                       # Writes before turning the bus around for reads
system.mem_ctrls1.wrPerTurnAround::mean     17.477941                       # Writes before turning the bus around for reads
system.mem_ctrls1.wrPerTurnAround::gmean    17.442179                       # Writes before turning the bus around for reads
system.mem_ctrls1.wrPerTurnAround::stdev     1.121949                       # Writes before turning the bus around for reads
system.mem_ctrls1.wrPerTurnAround::16              41     30.15%     30.15% # Writes before turning the bus around for reads
system.mem_ctrls1.wrPerTurnAround::17               9      6.62%     36.76% # Writes before turning the bus around for reads
system.mem_ctrls1.wrPerTurnAround::18              72     52.94%     89.71% # Writes before turning the bus around for reads
system.mem_ctrls1.wrPerTurnAround::19               9      6.62%     96.32% # Writes before turning the bus around for reads
system.mem_ctrls1.wrPerTurnAround::20               4      2.94%     99.26% # Writes before turning the bus around for reads
system.mem_ctrls1.wrPerTurnAround::21               1      0.74%    100.00% # Writes before turning the bus around for reads
system.mem_ctrls1.wrPerTurnAround::total          136                       # Writes before turning the bus around for reads
system.mem_ctrls1.totQLat                  9384098709                       # Total ticks spent queuing
system.mem_ctrls1.totMemAccLat            10260398709                       # Total ticks spent from burst creation until serviced by the DRAM
system.mem_ctrls1.totBusLat                 233680000                       # Total ticks spent in databus transfers
system.mem_ctrls1.avgQLat                   200789.51                       # Average queueing delay per DRAM burst
system.mem_ctrls1.avgBusLat                   5000.00                       # Average bus latency per DRAM burst
system.mem_ctrls1.avgMemAccLat              219539.51                       # Average memory access latency per DRAM burst
system.mem_ctrls1.avgRdBW                        2.95                       # Average DRAM read bandwidth in MiByte/s
system.mem_ctrls1.avgWrBW                        0.15                       # Average achieved write bandwidth in MiByte/s
system.mem_ctrls1.avgRdBWSys                     2.96                       # Average system read bandwidth in MiByte/s
system.mem_ctrls1.avgWrBWSys                     0.15                       # Average system write bandwidth in MiByte/s
system.mem_ctrls1.peakBW                     12800.00                       # Theoretical peak bandwidth in MiByte/s
system.mem_ctrls1.busUtil                        0.02                       # Data bus utilization in percentage
system.mem_ctrls1.busUtilRead                    0.02                       # Data bus utilization in percentage for reads
system.mem_ctrls1.busUtilWrite                   0.00                       # Data bus utilization in percentage for writes
system.mem_ctrls1.avgRdQLen                      1.00                       # Average read queue length when enqueuing
system.mem_ctrls1.avgWrQLen                      8.54                       # Average write queue length when enqueuing
system.mem_ctrls1.readRowHits                   23631                       # Number of row buffer hits during reads
system.mem_ctrls1.writeRowHits                   1514                       # Number of row buffer hits during writes
system.mem_ctrls1.readRowHitRate                50.56                       # Row buffer hit rate for reads
system.mem_ctrls1.writeRowHitRate               63.27                       # Row buffer hit rate for writes
system.mem_ctrls1.avgGap                  20549712.31                       # Average gap between requests
system.mem_ctrls1.pageHitRate                   51.18                       # Row buffer hit rate, read and write combined
system.mem_ctrls1_0.actEnergy                89742660                       # Energy for activate commands per rank (pJ)
system.mem_ctrls1_0.preEnergy                47687970                       # Energy for precharge commands per rank (pJ)
system.mem_ctrls1_0.readEnergy              167104560                       # Energy for read commands per rank (pJ)
system.mem_ctrls1_0.writeEnergy               6133500                       # Energy for write commands per rank (pJ)
system.mem_ctrls1_0.refreshEnergy        15730481520.000004                       # Energy for refresh commands per rank (pJ)
system.mem_ctrls1_0.actBackEnergy          3383189400                       # Energy for active background per rank (pJ)
system.mem_ctrls1_0.preBackEnergy          1037827200                       # Energy for precharge background per rank (pJ)
system.mem_ctrls1_0.actPowerDownEnergy    30907332870                       # Energy for active power-down per rank (pJ)
system.mem_ctrls1_0.prePowerDownEnergy    24413994240                       # Energy for precharge power-down per rank (pJ)
system.mem_ctrls1_0.selfRefreshEnergy    213458627100                       # Energy for self refresh per rank (pJ)
system.mem_ctrls1_0.totalEnergy          289242336510                       # Total energy per rank (pJ)
system.mem_ctrls1_0.averagePower           285.658413                       # Core power per rank (mW)
system.mem_ctrls1_0.totalIdleTime        1002423884875                       # Total Idle time Per DRAM Rank
system.mem_ctrls1_0.memoryStateTime::IDLE   2168674672                       # Time in different power states
system.mem_ctrls1_0.memoryStateTime::REF   6702036000                       # Time in different power states
system.mem_ctrls1_0.memoryStateTime::SREF 871066357360                       # Time in different power states
system.mem_ctrls1_0.memoryStateTime::PRE_PDN  63578261859                       # Time in different power states
system.mem_ctrls1_0.memoryStateTime::ACT   1251588043                       # Time in different power states
system.mem_ctrls1_0.memoryStateTime::ACT_PDN  67779265656                       # Time in different power states
system.mem_ctrls1_1.actEnergy                81388860                       # Energy for activate commands per rank (pJ)
system.mem_ctrls1_1.preEnergy                43240230                       # Energy for precharge commands per rank (pJ)
system.mem_ctrls1_1.readEnergy              166590480                       # Energy for read commands per rank (pJ)
system.mem_ctrls1_1.writeEnergy               6274440                       # Energy for write commands per rank (pJ)
system.mem_ctrls1_1.refreshEnergy        16852814160.000004                       # Energy for refresh commands per rank (pJ)
system.mem_ctrls1_1.actBackEnergy          3543353130                       # Energy for active background per rank (pJ)
system.mem_ctrls1_1.preBackEnergy          1132061280                       # Energy for precharge background per rank (pJ)
system.mem_ctrls1_1.actPowerDownEnergy    32193315000                       # Energy for active power-down per rank (pJ)
system.mem_ctrls1_1.prePowerDownEnergy    26437865760                       # Energy for precharge power-down per rank (pJ)
system.mem_ctrls1_1.selfRefreshEnergy    211795127835                       # Energy for self refresh per rank (pJ)
system.mem_ctrls1_1.totalEnergy          292252466595                       # Total energy per rank (pJ)
system.mem_ctrls1_1.averagePower           288.631246                       # Core power per rank (mW)
system.mem_ctrls1_1.totalIdleTime        1001826409945                       # Total Idle time Per DRAM Rank
system.mem_ctrls1_1.memoryStateTime::IDLE   2378413370                       # Time in different power states
system.mem_ctrls1_1.memoryStateTime::REF   7181374000                       # Time in different power states
system.mem_ctrls1_1.memoryStateTime::SREF 862378603526                       # Time in different power states
system.mem_ctrls1_1.memoryStateTime::PRE_PDN  68848547377                       # Time in different power states
system.mem_ctrls1_1.memoryStateTime::ACT   1159986275                       # Time in different power states
system.mem_ctrls1_1.memoryStateTime::ACT_PDN  70599259042                       # Time in different power states
system.pwrStateResidencyTicks::UNDEFINED 310860428067999                       # Cumulative time (in ticks) in various power states
system.cpu.branchPred.lookups                       1                       # Number of BP lookups
system.cpu.branchPred.condPredicted                 0                       # Number of conditional branches predicted
system.cpu.branchPred.condIncorrect                 1                       # Number of conditional branches incorrect
system.cpu.branchPred.BTBLookups                    0                       # Number of BTB lookups
system.cpu.branchPred.BTBHits                       0                       # Number of BTB hits
system.cpu.branchPred.BTBCorrect                    0                       # Number of correct BTB predictions (this stat may not work properly.
system.cpu.branchPred.BTBHitPct                   nan                       # BTB Hit Percentage
system.cpu.branchPred.usedRAS                       1                       # Number of times the RAS was used to get a target.
system.cpu.branchPred.RASInCorrect                  1                       # Number of incorrect RAS predictions.
system.cpu.branchPred.indirectLookups               0                       # Number of indirect predictor lookups.
system.cpu.branchPred.indirectHits                  0                       # Number of indirect target hits.
system.cpu.branchPred.indirectMisses                0                       # Number of indirect misses.
system.cpu.branchPredindirectMispredicted            0                       # Number of mispredicted indirect branches.
system.cpu_voltage_domain.voltage                   1                       # Voltage in Volts
system.cpu_clk_domain.clock                       333                       # Clock period in ticks
system.cpu.dtb.fetch_hits                           0                       # ITB hits
system.cpu.dtb.fetch_misses                         0                       # ITB misses
system.cpu.dtb.fetch_acv                            0                       # ITB acv
system.cpu.dtb.fetch_accesses                       0                       # ITB accesses
system.cpu.dtb.read_hits                            0                       # DTB read hits
system.cpu.dtb.read_misses                          0                       # DTB read misses
system.cpu.dtb.read_acv                             0                       # DTB read access violations
system.cpu.dtb.read_accesses                        0                       # DTB read accesses
system.cpu.dtb.write_hits                           0                       # DTB write hits
system.cpu.dtb.write_misses                         0                       # DTB write misses
system.cpu.dtb.write_acv                            0                       # DTB write access violations
system.cpu.dtb.write_accesses                       0                       # DTB write accesses
system.cpu.dtb.data_hits                            0                       # DTB hits
system.cpu.dtb.data_misses                          0                       # DTB misses
system.cpu.dtb.data_acv                             0                       # DTB access violations
system.cpu.dtb.data_accesses                        0                       # DTB accesses
system.cpu.itb.fetch_hits                           4                       # ITB hits
system.cpu.itb.fetch_misses                         1                       # ITB misses
system.cpu.itb.fetch_acv                            0                       # ITB acv
system.cpu.itb.fetch_accesses                       5                       # ITB accesses
system.cpu.itb.read_hits                            0                       # DTB read hits
system.cpu.itb.read_misses                          0                       # DTB read misses
system.cpu.itb.read_acv                             0                       # DTB read access violations
system.cpu.itb.read_accesses                        0                       # DTB read accesses
system.cpu.itb.write_hits                           0                       # DTB write hits
system.cpu.itb.write_misses                         0                       # DTB write misses
system.cpu.itb.write_acv                            0                       # DTB write access violations
system.cpu.itb.write_accesses                       0                       # DTB write accesses
system.cpu.itb.data_hits                            0                       # DTB hits
system.cpu.itb.data_misses                          0                       # DTB misses
system.cpu.itb.data_acv                             0                       # DTB access violations
system.cpu.itb.data_accesses                        0                       # DTB accesses
system.cpu.workload.num_syscalls                    0                       # Number of system calls
system.cpu.pwrStateResidencyTicks::ON    1012546183590                       # Cumulative time (in ticks) in various power states
system.cpu.numCycles                              973                       # number of cpu cycles simulated
system.cpu.numWorkItemsStarted                      0                       # number of work items this cpu started
system.cpu.numWorkItemsCompleted                    0                       # number of work items this cpu completed
system.cpu.fetch.icacheStallCycles                 27                       # Number of cycles fetch is stalled on an Icache miss
system.cpu.fetch.Insts                              7                       # Number of instructions fetch has processed
system.cpu.fetch.Branches                           1                       # Number of branches that fetch encountered
system.cpu.fetch.predictedBranches                  1                       # Number of branches that fetch has predicted taken
system.cpu.fetch.Cycles                             2                       # Number of cycles fetch has run and was not squashing or blocked
system.cpu.fetch.SquashCycles                       5                       # Number of cycles fetch has spent squashing
system.cpu.fetch.PendingDrainCycles                 3                       # Number of cycles fetch has spent waiting on pipes to drain
system.cpu.fetch.PendingTrapStallCycles             6                       # Number of stall cycles due to pending traps
system.cpu.fetch.CacheLines                         4                       # Number of cache lines fetched
system.cpu.fetch.IcacheSquashes                     2                       # Number of outstanding Icache misses that were squashed
system.cpu.fetch.rateDist::samples                 40                       # Number of instructions fetched each cycle (Total)
system.cpu.fetch.rateDist::mean              0.175000                       # Number of instructions fetched each cycle (Total)
system.cpu.fetch.rateDist::stdev             0.957762                       # Number of instructions fetched each cycle (Total)
system.cpu.fetch.rateDist::underflows               0      0.00%      0.00% # Number of instructions fetched each cycle (Total)
system.cpu.fetch.rateDist::0                       38     95.00%     95.00% # Number of instructions fetched each cycle (Total)
system.cpu.fetch.rateDist::1                        1      2.50%     97.50% # Number of instructions fetched each cycle (Total)
system.cpu.fetch.rateDist::2                        0      0.00%     97.50% # Number of instructions fetched each cycle (Total)
system.cpu.fetch.rateDist::3                        0      0.00%     97.50% # Number of instructions fetched each cycle (Total)
system.cpu.fetch.rateDist::4                        0      0.00%     97.50% # Number of instructions fetched each cycle (Total)
system.cpu.fetch.rateDist::5                        0      0.00%     97.50% # Number of instructions fetched each cycle (Total)
system.cpu.fetch.rateDist::6                        1      2.50%    100.00% # Number of instructions fetched each cycle (Total)
system.cpu.fetch.rateDist::7                        0      0.00%    100.00% # Number of instructions fetched each cycle (Total)
system.cpu.fetch.rateDist::8                        0      0.00%    100.00% # Number of instructions fetched each cycle (Total)
system.cpu.fetch.rateDist::overflows                0      0.00%    100.00% # Number of instructions fetched each cycle (Total)
system.cpu.fetch.rateDist::min_value                0                       # Number of instructions fetched each cycle (Total)
system.cpu.fetch.rateDist::max_value                6                       # Number of instructions fetched each cycle (Total)
system.cpu.fetch.rateDist::total                   40                       # Number of instructions fetched each cycle (Total)
system.cpu.fetch.branchRate                  0.001028                       # Number of branch fetches per cycle
system.cpu.fetch.rate                        0.007194                       # Number of inst fetches per cycle
system.cpu.decode.IdleCycles                       35                       # Number of cycles decode is idle
system.cpu.decode.RunCycles                         2                       # Number of cycles decode is running
[...]
system.switch_cpus_1.iq.int_inst_queue_writes     89895173                       # Number of integer instruction queue writes
system.switch_cpus_1.iq.int_inst_queue_wakeup_accesses     83816843                       # Number of integer instruction queue wakeup accesses
system.switch_cpus_1.iq.fp_inst_queue_reads    266757923                       # Number of floating instruction queue reads
system.switch_cpus_1.iq.fp_inst_queue_writes    142388585                       # Number of floating instruction queue writes
system.switch_cpus_1.iq.fp_inst_queue_wakeup_accesses    125825756                       # Number of floating instruction queue wakeup accesses
system.switch_cpus_1.iq.int_alu_accesses     84870719                       # Number of integer alu accesses
system.switch_cpus_1.iq.fp_alu_accesses     135839517                       # Number of floating point alu accesses
system.switch_cpus_1.iew.lsq.thread0.forwLoads      4028670                       # Number of loads that had data forwarded from stores
system.switch_cpus_1.iew.lsq.thread0.invAddrLoads            0                       # Number of loads ignored due to an invalid address
system.switch_cpus_1.iew.lsq.thread0.squashedLoads      3319004                       # Number of loads squashed
system.switch_cpus_1.iew.lsq.thread0.ignoredResponses         4779                       # Number of memory responses ignored because the instruction is squashed
system.switch_cpus_1.iew.lsq.thread0.memOrderViolation         5856                       # Number of memory ordering violations
system.switch_cpus_1.iew.lsq.thread0.squashedStores       558180                       # Number of stores squashed
system.switch_cpus_1.iew.lsq.thread0.invAddrSwpfs            0                       # Number of software prefetches ignored due to an invalid address
system.switch_cpus_1.iew.lsq.thread0.blockedLoads            0                       # Number of blocked loads due to partial load-store forwarding
system.switch_cpus_1.iew.lsq.thread0.rescheduledLoads            3                       # Number of loads that were rescheduled
system.switch_cpus_1.iew.lsq.thread0.cacheBlocked      5338702                       # Number of times an access to memory failed due to the cache being blocked
system.switch_cpus_1.iew.iewIdleCycles              0                       # Number of cycles IEW is idle
system.switch_cpus_1.iew.iewSquashCycles       223419                       # Number of cycles IEW is squashing
system.switch_cpus_1.iew.iewBlockCycles      16910960                       # Number of cycles IEW is blocking
system.switch_cpus_1.iew.iewUnblockCycles      3199708                       # Number of cycles IEW is unblocking
system.switch_cpus_1.iew.iewDispatchedInsts    222182788                       # Number of instructions dispatched to IQ
system.switch_cpus_1.iew.iewDispSquashedInsts         2357                       # Number of squashed instructions skipped by dispatch
system.switch_cpus_1.iew.iewDispLoadInsts     33490823                       # Number of dispatched load instructions
system.switch_cpus_1.iew.iewDispStoreInsts     13364972                       # Number of dispatched store instructions
system.switch_cpus_1.iew.iewDispNonSpecInsts          890                       # Number of dispatched non-speculative instructions
system.switch_cpus_1.iew.iewIQFullEvents       968464                       # Number of times the IQ has become full, causing a stall
system.switch_cpus_1.iew.iewLSQFullEvents      1996639                       # Number of times the LSQ has become full, causing a stall
system.switch_cpus_1.iew.memOrderViolationEvents         5856                       # Number of memory order violations
system.switch_cpus_1.iew.predictedTakenIncorrect       117245                       # Number of branches that were predicted taken incorrectly
system.switch_cpus_1.iew.predictedNotTakenIncorrect       103601                       # Number of branches that were predicted not taken incorrectly
system.switch_cpus_1.iew.branchMispredicts       220846                       # Number of branch mispredicts detected at execute
system.switch_cpus_1.iew.iewExecutedInsts    214715866                       # Number of executed instructions
system.switch_cpus_1.iew.iewExecLoadInsts     37566294                       # Number of load instructions executed
system.switch_cpus_1.iew.iewExecSquashedInsts       264602                       # Number of squashed instructions skipped in execute
system.switch_cpus_1.iew.exec_swp                   0                       # number of swp insts executed
system.switch_cpus_1.iew.exec_nop             6043778                       # number of nop insts executed
system.switch_cpus_1.iew.exec_refs           50617222                       # number of memory reference insts executed
system.switch_cpus_1.iew.exec_branches       17889698                       # Number of branches executed
system.switch_cpus_1.iew.exec_stores         13050928                       # Number of stores executed
system.switch_cpus_1.iew.exec_rate           1.684789                       # Inst execution rate
system.switch_cpus_1.iew.wb_sent            209768947                       # cumulative count of insts sent to commit
system.switch_cpus_1.iew.wb_count           209642599                       # cumulative count of insts written-back
system.switch_cpus_1.iew.wb_producers       157513642                       # num instructions producing a value
system.switch_cpus_1.iew.wb_consumers       227020597                       # num instructions consuming a value
system.switch_cpus_1.iew.wb_rate             1.644981                       # insts written-back per cycle
system.switch_cpus_1.iew.wb_fanout           0.693830                       # average fanout of values written-back
system.switch_cpus_1.commit.commitSquashedInsts     16561347                       # The number of squashed insts skipped by commit
system.switch_cpus_1.commit.commitNonSpecStalls         1060                       # The number of times commit has been forced to stall to communicate backwards
system.switch_cpus_1.commit.branchMispredicts       212731                       # The number of times a branch was mispredicted
system.switch_cpus_1.commit.committed_per_cycle::samples    125030222                       # Number of insts commited each cycle
system.switch_cpus_1.commit.committed_per_cycle::mean     1.644305                       # Number of insts commited each cycle
system.switch_cpus_1.commit.committed_per_cycle::stdev     2.787469                       # Number of insts commited each cycle
system.switch_cpus_1.commit.committed_per_cycle::underflows            0      0.00%      0.00% # Number of insts commited each cycle
system.switch_cpus_1.commit.committed_per_cycle::0     72588878     58.06%     58.06% # Number of insts commited each cycle
system.switch_cpus_1.commit.committed_per_cycle::1     22060774     17.64%     75.70% # Number of insts commited each cycle
system.switch_cpus_1.commit.committed_per_cycle::2      4731744      3.78%     79.49% # Number of insts commited each cycle
system.switch_cpus_1.commit.committed_per_cycle::3      2912152      2.33%     81.82% # Number of insts commited each cycle
system.switch_cpus_1.commit.committed_per_cycle::4      2154560      1.72%     83.54% # Number of insts commited each cycle
system.switch_cpus_1.commit.committed_per_cycle::5       913873      0.73%     84.27% # Number of insts commited each cycle
system.switch_cpus_1.commit.committed_per_cycle::6      2172142      1.74%     86.01% # Number of insts commited each cycle
system.switch_cpus_1.commit.committed_per_cycle::7       862189      0.69%     86.70% # Number of insts commited each cycle
system.switch_cpus_1.commit.committed_per_cycle::8     16633910     13.30%    100.00% # Number of insts commited each cycle
system.switch_cpus_1.commit.committed_per_cycle::overflows            0      0.00%    100.00% # Number of insts commited each cycle
system.switch_cpus_1.commit.committed_per_cycle::min_value            0                       # Number of insts commited each cycle
system.switch_cpus_1.commit.committed_per_cycle::max_value            8                       # Number of insts commited each cycle
system.switch_cpus_1.commit.committed_per_cycle::total    125030222                       # Number of insts commited each cycle
system.switch_cpus_1.commit.committedInsts    205587778                       # Number of instructions committed
system.switch_cpus_1.commit.committedOps    205587778                       # Number of ops (including micro ops) committed
system.switch_cpus_1.commit.swp_count               0                       # Number of s/w prefetches committed
system.switch_cpus_1.commit.refs             42978589                       # Number of memory references committed
system.switch_cpus_1.commit.loads            30171801                       # Number of loads committed
system.switch_cpus_1.commit.membars               530                       # Number of memory barriers committed
system.switch_cpus_1.commit.branches         16841234                       # Number of branches committed
system.switch_cpus_1.commit.fp_insts        121009933                       # Number of committed floating point instructions.
system.switch_cpus_1.commit.int_insts       111742899                       # Number of committed integer instructions.
system.switch_cpus_1.commit.function_calls      1810278                       # Number of function calls committed.
system.switch_cpus_1.commit.op_class_0::No_OpClass      5587774      2.72%      2.72% # Class of committed instruction
system.switch_cpus_1.commit.op_class_0::IntAlu     66796729     32.49%     35.21% # Class of committed instruction
system.switch_cpus_1.commit.op_class_0::IntMult       802505      0.39%     35.60% # Class of committed instruction
system.switch_cpus_1.commit.op_class_0::IntDiv            0      0.00%     35.60% # Class of committed instruction
system.switch_cpus_1.commit.op_class_0::FloatAdd     57123504     27.79%     63.38% # Class of committed instruction
system.switch_cpus_1.commit.op_class_0::FloatCmp      4994353      2.43%     65.81% # Class of committed instruction
system.switch_cpus_1.commit.op_class_0::FloatCvt      3095320      1.51%     67.32% # Class of committed instruction
system.switch_cpus_1.commit.op_class_0::FloatMult     24208317     11.78%     79.09% # Class of committed instruction
system.switch_cpus_1.commit.op_class_0::FloatMultAcc            0      0.00%     79.09% # Class of committed instruction
system.switch_cpus_1.commit.op_class_0::FloatDiv          116      0.00%     79.09% # Class of committed instruction
system.switch_cpus_1.commit.op_class_0::FloatMisc            0      0.00%     79.09% # Class of committed instruction
system.switch_cpus_1.commit.op_class_0::FloatSqrt           41      0.00%     79.09% # Class of committed instruction
system.switch_cpus_1.commit.op_class_0::SimdAdd            0      0.00%     79.09% # Class of committed instruction
system.switch_cpus_1.commit.op_class_0::SimdAddAcc            0      0.00%     79.09% # Class of committed instruction
system.switch_cpus_1.commit.op_class_0::SimdAlu            0      0.00%     79.09% # Class of committed instruction
system.switch_cpus_1.commit.op_class_0::SimdCmp            0      0.00%     79.09% # Class of committed instruction
system.switch_cpus_1.commit.op_class_0::SimdCvt            0      0.00%     79.09% # Class of committed instruction
system.switch_cpus_1.commit.op_class_0::SimdMisc            0      0.00%     79.09% # Class of committed instruction
system.switch_cpus_1.commit.op_class_0::SimdMult            0      0.00%     79.09% # Class of committed instruction
system.switch_cpus_1.commit.op_class_0::SimdMultAcc            0      0.00%     79.09% # Class of committed instruction
system.switch_cpus_1.commit.op_class_0::SimdShift            0      0.00%     79.09% # Class of committed instruction
system.switch_cpus_1.commit.op_class_0::SimdShiftAcc            0      0.00%     79.09% # Class of committed instruction
system.switch_cpus_1.commit.op_class_0::SimdSqrt            0      0.00%     79.09% # Class of committed instruction
system.switch_cpus_1.commit.op_class_0::SimdFloatAdd            0      0.00%     79.09% # Class of committed instruction
system.switch_cpus_1.commit.op_class_0::SimdFloatAlu            0      0.00%     79.09% # Class of committed instruction
system.switch_cpus_1.commit.op_class_0::SimdFloatCmp            0      0.00%     79.09% # Class of committed instruction
system.switch_cpus_1.commit.op_class_0::SimdFloatCvt            0      0.00%     79.09% # Class of committed instruction
system.switch_cpus_1.commit.op_class_0::SimdFloatDiv            0      0.00%     79.09% # Class of committed instruction
system.switch_cpus_1.commit.op_class_0::SimdFloatMisc            0      0.00%     79.09% # Class of committed instruction
system.switch_cpus_1.commit.op_class_0::SimdFloatMult            0      0.00%     79.09% # Class of committed instruction
system.switch_cpus_1.commit.op_class_0::SimdFloatMultAcc            0      0.00%     79.09% # Class of committed instruction
system.switch_cpus_1.commit.op_class_0::SimdFloatSqrt            0      0.00%     79.09% # Class of committed instruction
system.switch_cpus_1.commit.op_class_0::MemRead      6947129      3.38%     82.47% # Class of committed instruction
system.switch_cpus_1.commit.op_class_0::MemWrite      4443708      2.16%     84.64% # Class of committed instruction
system.switch_cpus_1.commit.op_class_0::FloatMemRead     23225202     11.30%     95.93% # Class of committed instruction
system.switch_cpus_1.commit.op_class_0::FloatMemWrite      8363080      4.07%    100.00% # Class of committed instruction
system.switch_cpus_1.commit.op_class_0::IprAccess            0      0.00%    100.00% # Class of committed instruction
system.switch_cpus_1.commit.op_class_0::InstPrefetch            0      0.00%    100.00% # Class of committed instruction
system.switch_cpus_1.commit.op_class_0::total    205587778                       # Class of committed instruction
system.switch_cpus_1.commit.bw_lim_events     16633910                       # number cycles where commit BW limit reached
system.switch_cpus_1.rob.rob_reads          330478071                       # The number of ROB reads
system.switch_cpus_1.rob.rob_writes         446525812                       # The number of ROB writes
system.switch_cpus_1.timesIdled                  1542                       # Number of times that the entire CPU went into an idle state and unscheduled itself
system.switch_cpus_1.idleCycles                201382                       # Total number of cycles that the CPU has spent unscheduled due to idling
system.switch_cpus_1.committedInsts         200000004                       # Number of Instructions Simulated
system.switch_cpus_1.committedOps           200000004                       # Number of Ops (including micro ops) Simulated
system.switch_cpus_1.cpi                     0.637219                       # CPI: Cycles Per Instruction
system.switch_cpus_1.cpi_total               0.637219                       # CPI: Total CPI of All Threads
system.switch_cpus_1.ipc                     1.569320                       # IPC: Instructions Per Cycle
system.switch_cpus_1.ipc_total               1.569320                       # IPC: Total IPC of All Threads
system.switch_cpus_1.int_regfile_reads      143689808                       # number of integer regfile reads
system.switch_cpus_1.int_regfile_writes      69425262                       # number of integer regfile writes
system.switch_cpus_1.fp_regfile_reads       186918563                       # number of floating regfile reads
system.switch_cpus_1.fp_regfile_writes      111272517                       # number of floating regfile writes
system.switch_cpus_1.misc_regfile_reads      56348980                       # number of misc regfile reads
system.switch_cpus_1.misc_regfile_writes         1060                       # number of misc regfile writes
system.tol3bus.snoop_filter.tot_requests      6318608                       # Total number of requests made to the snoop filter.
system.tol3bus.snoop_filter.hit_single_requests      3157085                       # Number of requests hitting in the snoop filter with a single holder of the requested data.
system.tol3bus.snoop_filter.hit_multi_requests            0                       # Number of requests hitting in the snoop filter with multiple (>1) holders of the requested data.
system.tol3bus.snoop_filter.tot_snoops            202                       # Total number of snoops made to the snoop filter.
system.tol3bus.snoop_filter.hit_single_snoops          202                       # Number of snoops hitting in the snoop filter with a single holder of the requested data.
system.tol3bus.snoop_filter.hit_multi_snoops            0                       # Number of snoops hitting in the snoop filter with multiple (>1) holders of the requested data.
system.tol3bus.pwrStateResidencyTicks::UNDEFINED 310860428067999                       # Cumulative time (in ticks) in various power states
system.tol3bus.trans_dist::ReadResp           2177108                       # Transaction distribution
system.tol3bus.trans_dist::WritebackDirty      2354644                       # Transaction distribution
system.tol3bus.trans_dist::CleanEvict          828826                       # Transaction distribution
system.tol3bus.trans_dist::ReadExReq           984415                       # Transaction distribution
system.tol3bus.trans_dist::ReadExResp          984415                       # Transaction distribution
system.tol3bus.trans_dist::ReadSharedReq      2177108                       # Transaction distribution
system.tol3bus.pkt_count_system.cpu.l2.mem_side::system.l3.cpu_side      9480131                       # Packet count per connected master and slave (bytes)
system.tol3bus.pkt_size_system.cpu.l2.mem_side::system.l3.cpu_side    352728320                       # Cumulative packet size per connected master and slave (bytes)
system.tol3bus.snoops                           26385                       # Total snoops (count)
system.tol3bus.snoopTraffic                    306368                       # Total snoop traffic (bytes)
system.tol3bus.snoop_fanout::samples          3187908                       # Request fanout histogram
system.tol3bus.snoop_fanout::mean            0.000063                       # Request fanout histogram
system.tol3bus.snoop_fanout::stdev           0.007960                       # Request fanout histogram
system.tol3bus.snoop_fanout::underflows             0      0.00%      0.00% # Request fanout histogram
system.tol3bus.snoop_fanout::0                3187706     99.99%     99.99% # Request fanout histogram
system.tol3bus.snoop_fanout::1                    202      0.01%    100.00% # Request fanout histogram
system.tol3bus.snoop_fanout::overflows              0      0.00%    100.00% # Request fanout histogram
system.tol3bus.snoop_fanout::min_value              0                       # Request fanout histogram
system.tol3bus.snoop_fanout::max_value              1                       # Request fanout histogram
system.tol3bus.snoop_fanout::total            3187908                       # Request fanout histogram
system.tol3bus.reqLayer0.occupancy         2886598845                       # Layer occupancy (ticks)
system.tol3bus.reqLayer0.utilization              0.3                       # Layer utilization (%)
system.tol3bus.respLayer0.occupancy        2105574318                       # Layer occupancy (ticks)
system.tol3bus.respLayer0.utilization             0.2                       # Layer utilization (%)

---------- End Simulation Statistics   ----------
