
---------- Begin Simulation Statistics ----------
sim_seconds                                  2.359379                       # Number of seconds simulated
sim_ticks                                2359378827765                       # Number of ticks simulated
final_tick                               75629532628467                       # Number of ticks from beginning of simulation (restored from checkpoints and never reset)
sim_freq                                 1000000000000                       # Frequency of simulated ticks
host_inst_rate                                 338130                       # Simulator instruction rate (inst/s)
host_op_rate                                   338130                       # Simulator op (including micro ops) rate (op/s)
host_tick_rate                              664813912                       # Simulator tick rate (ticks/s)
host_mem_usage                                2404800                       # Number of bytes of host memory used
host_seconds                                  3548.93                       # Real time elapsed on the host
sim_insts                                  1200000010                       # Number of instructions simulated
sim_ops                                    1200000010                       # Number of ops (including micro ops) simulated
system.voltage_domain.voltage                       1                       # Voltage in Volts
system.clk_domain.clock                          1000                       # Clock period in ticks
system.mem_ctrls0.pwrStateResidencyTicks::UNDEFINED 75629532628467                       # Cumulative time (in ticks) in various power states
system.mem_ctrls0.bytes_read::cpu.inst            128                       # Number of bytes read from this memory
system.mem_ctrls0.bytes_read::cpu.data            192                       # Number of bytes read from this memory
system.mem_ctrls0.bytes_read::switch_cpus.inst        43968                       # Number of bytes read from this memory
system.mem_ctrls0.bytes_read::switch_cpus.data    227068288                       # Number of bytes read from this memory
system.mem_ctrls0.bytes_read::switch_cpus_1.inst         3392                       # Number of bytes read from this memory
system.mem_ctrls0.bytes_read::switch_cpus_1.data     40992640                       # Number of bytes read from this memory
system.mem_ctrls0.bytes_read::total         268108608                       # Number of bytes read from this memory
system.mem_ctrls0.bytes_inst_read::cpu.inst          128                       # Number of instructions bytes read from this memory
system.mem_ctrls0.bytes_inst_read::switch_cpus.inst        43968                       # Number of instructions bytes read from this memory
system.mem_ctrls0.bytes_inst_read::switch_cpus_1.inst         3392                       # Number of instructions bytes read from this memory
system.mem_ctrls0.bytes_inst_read::total        47488                       # Number of instructions bytes read from this memory
system.mem_ctrls0.bytes_written::writebacks     84271936                       # Number of bytes written to this memory
system.mem_ctrls0.bytes_written::total       84271936                       # Number of bytes written to this memory
system.mem_ctrls0.num_reads::cpu.inst               2                       # Number of read requests responded to by this memory
system.mem_ctrls0.num_reads::cpu.data               3                       # Number of read requests responded to by this memory
system.mem_ctrls0.num_reads::switch_cpus.inst          687                       # Number of read requests responded to by this memory
system.mem_ctrls0.num_reads::switch_cpus.data      3547942                       # Number of read requests responded to by this memory
system.mem_ctrls0.num_reads::switch_cpus_1.inst           53                       # Number of read requests responded to by this memory
system.mem_ctrls0.num_reads::switch_cpus_1.data       640510                       # Number of read requests responded to by this memory
system.mem_ctrls0.num_reads::total            4189197                       # Number of read requests responded to by this memory
system.mem_ctrls0.num_writes::writebacks      1316749                       # Number of write requests responded to by this memory
system.mem_ctrls0.num_writes::total           1316749                       # Number of write requests responded to by this memory
system.mem_ctrls0.bw_read::cpu.inst                54                       # Total read bandwidth from this memory (bytes/s)
system.mem_ctrls0.bw_read::cpu.data                81                       # Total read bandwidth from this memory (bytes/s)
system.mem_ctrls0.bw_read::switch_cpus.inst        18635                       # Total read bandwidth from this memory (bytes/s)
system.mem_ctrls0.bw_read::switch_cpus.data     96240708                       # Total read bandwidth from this memory (bytes/s)
system.mem_ctrls0.bw_read::switch_cpus_1.inst         1438                       # Total read bandwidth from this memory (bytes/s)
system.mem_ctrls0.bw_read::switch_cpus_1.data     17374336                       # Total read bandwidth from this memory (bytes/s)
system.mem_ctrls0.bw_read::total            113635252                       # Total read bandwidth from this memory (bytes/s)
system.mem_ctrls0.bw_inst_read::cpu.inst           54                       # Instruction read bandwidth from this memory (bytes/s)
system.mem_ctrls0.bw_inst_read::switch_cpus.inst        18635                       # Instruction read bandwidth from this memory (bytes/s)
system.mem_ctrls0.bw_inst_read::switch_cpus_1.inst         1438                       # Instruction read bandwidth from this memory (bytes/s)
system.mem_ctrls0.bw_inst_read::total           20127                       # Instruction read bandwidth from this memory (bytes/s)
system.mem_ctrls0.bw_write::writebacks       35717849                       # Write bandwidth from this memory (bytes/s)
system.mem_ctrls0.bw_write::total            35717849                       # Write bandwidth from this memory (bytes/s)
system.mem_ctrls0.bw_total::writebacks       35717849                       # Total bandwidth to/from this memory (bytes/s)
system.mem_ctrls0.bw_total::cpu.inst               54                       # Total bandwidth to/from this memory (bytes/s)
system.mem_ctrls0.bw_total::cpu.data               81                       # Total bandwidth to/from this memory (bytes/s)
system.mem_ctrls0.bw_total::switch_cpus.inst        18635                       # Total bandwidth to/from this memory (bytes/s)
system.mem_ctrls0.bw_total::switch_cpus.data     96240708                       # Total bandwidth to/from this memory (bytes/s)
system.mem_ctrls0.bw_total::switch_cpus_1.inst         1438                       # Total bandwidth to/from this memory (bytes/s)
system.mem_ctrls0.bw_total::switch_cpus_1.data     17374336                       # Total bandwidth to/from this memory (bytes/s)
system.mem_ctrls0.bw_total::total           149353101                       # Total bandwidth to/from this memory (bytes/s)
system.mem_ctrls0.readReqs                    4189199                       # Number of read requests accepted
system.mem_ctrls0.writeReqs                   1316749                       # Number of write requests accepted
system.mem_ctrls0.readBursts                  4189199                       # Number of DRAM read bursts, including those serviced by the write queue
system.mem_ctrls0.writeBursts                 1316749                       # Number of DRAM write bursts, including those merged in the write queue
system.mem_ctrls0.bytesReadDRAM             268093376                       # Total number of bytes read from DRAM
system.mem_ctrls0.bytesReadWrQ                  15296                       # Total number of bytes read from write queue
system.mem_ctrls0.bytesWritten               84270848                       # Total number of bytes written to DRAM
system.mem_ctrls0.bytesReadSys              268108736                       # Total read bytes from the system interface side
system.mem_ctrls0.bytesWrittenSys            84271936                       # Total written bytes from the system interface side
system.mem_ctrls0.servicedByWrQ                   239                       # Number of DRAM read bursts serviced by the write queue
system.mem_ctrls0.mergedWrBursts                    0                       # Number of DRAM write bursts merged with an existing one
system.mem_ctrls0.neitherReadNorWriteReqs            0                       # Number of requests that are neither read nor write
system.mem_ctrls0.perBankRdBursts::0           269484                       # Per bank write bursts
system.mem_ctrls0.perBankRdBursts::1           265736                       # Per bank write bursts
system.mem_ctrls0.perBankRdBursts::2           261378                       # Per bank write bursts
system.mem_ctrls0.perBankRdBursts::3           259278                       # Per bank write bursts
system.mem_ctrls0.perBankRdBursts::4           258789                       # Per bank write bursts
system.mem_ctrls0.perBankRdBursts::5           262883                       # Per bank write bursts
system.mem_ctrls0.perBankRdBursts::6           260848                       # Per bank write bursts
system.mem_ctrls0.perBankRdBursts::7           263749                       # Per bank write bursts
system.mem_ctrls0.perBankRdBursts::8           269021                       # Per bank write bursts
system.mem_ctrls0.perBankRdBursts::9           264679                       # Per bank write bursts
system.mem_ctrls0.perBankRdBursts::10          258442                       # Per bank write bursts
system.mem_ctrls0.perBankRdBursts::11          254297                       # Per bank write bursts
system.mem_ctrls0.perBankRdBursts::12          254866                       # Per bank write bursts
system.mem_ctrls0.perBankRdBursts::13          261130                       # Per bank write bursts
system.mem_ctrls0.perBankRdBursts::14          261695                       # Per bank write bursts
system.mem_ctrls0.perBankRdBursts::15          262684                       # Per bank write bursts
system.mem_ctrls0.perBankWrBursts::0            83742                       # Per bank write bursts
system.mem_ctrls0.perBankWrBursts::1            82760                       # Per bank write bursts
system.mem_ctrls0.perBankWrBursts::2            82490                       # Per bank write bursts
system.mem_ctrls0.perBankWrBursts::3            82888                       # Per bank write bursts
system.mem_ctrls0.perBankWrBursts::4            82433                       # Per bank write bursts
system.mem_ctrls0.perBankWrBursts::5            82762                       # Per bank write bursts
system.mem_ctrls0.perBankWrBursts::6            81942                       # Per bank write bursts
system.mem_ctrls0.perBankWrBursts::7            81365                       # Per bank write bursts
system.mem_ctrls0.perBankWrBursts::8            81745                       # Per bank write bursts
system.mem_ctrls0.perBankWrBursts::9            81977                       # Per bank write bursts
system.mem_ctrls0.perBankWrBursts::10           81897                       # Per bank write bursts
system.mem_ctrls0.perBankWrBursts::11           81433                       # Per bank write bursts
system.mem_ctrls0.perBankWrBursts::12           81160                       # Per bank write bursts
system.mem_ctrls0.perBankWrBursts::13           82022                       # Per bank write bursts
system.mem_ctrls0.perBankWrBursts::14           83226                       # Per bank write bursts
system.mem_ctrls0.perBankWrBursts::15           82890                       # Per bank write bursts
system.mem_ctrls0.numRdRetry                        0                       # Number of times read queue was full causing retry
system.mem_ctrls0.numWrRetry                        0                       # Number of times write queue was full causing retry
system.mem_ctrls0.totGap                 2359378647279                       # Total gap between requests
system.mem_ctrls0.readPktSize::0                    0                       # Read request sizes (log2)
system.mem_ctrls0.readPktSize::1                    0                       # Read request sizes (log2)
system.mem_ctrls0.readPktSize::2                    0                       # Read request sizes (log2)
system.mem_ctrls0.readPktSize::3                    0                       # Read request sizes (log2)
system.mem_ctrls0.readPktSize::4                    0                       # Read request sizes (log2)
system.mem_ctrls0.readPktSize::5                    0                       # Read request sizes (log2)
system.mem_ctrls0.readPktSize::6              4189199                       # Read request sizes (log2)
system.mem_ctrls0.writePktSize::0                   0                       # Write request sizes (log2)
system.mem_ctrls0.writePktSize::1                   0                       # Write request sizes (log2)
system.mem_ctrls0.writePktSize::2                   0                       # Write request sizes (log2)
system.mem_ctrls0.writePktSize::3                   0                       # Write request sizes (log2)
system.mem_ctrls0.writePktSize::4                   0                       # Write request sizes (log2)
system.mem_ctrls0.writePktSize::5                   0                       # Write request sizes (log2)
system.mem_ctrls0.writePktSize::6             1316749                       # Write request sizes (log2)
system.mem_ctrls0.rdQLenPdf::0                4052775                       # What read queue length does an incoming req see
system.mem_ctrls0.rdQLenPdf::1                 109808                       # What read queue length does an incoming req see
system.mem_ctrls0.rdQLenPdf::2                  24860                       # What read queue length does an incoming req see
system.mem_ctrls0.rdQLenPdf::3                   1515                       # What read queue length does an incoming req see
system.mem_ctrls0.rdQLenPdf::4                      2                       # What read queue length does an incoming req see
system.mem_ctrls0.rdQLenPdf::5                      0                       # What read queue length does an incoming req see
system.mem_ctrls0.rdQLenPdf::6                      0                       # What read queue length does an incoming req see
system.mem_ctrls0.rdQLenPdf::7                      0                       # What read queue length does an incoming req see
system.mem_ctrls0.rdQLenPdf::8                      0                       # What read queue length does an incoming req see
system.mem_ctrls0.rdQLenPdf::9                      0                       # What read queue length does an incoming req see
system.mem_ctrls0.rdQLenPdf::10                     0                       # What read queue length does an incoming req see
system.mem_ctrls0.rdQLenPdf::11                     0                       # What read queue length does an incoming req see
system.mem_ctrls0.rdQLenPdf::12                     0                       # What read queue length does an incoming req see
system.mem_ctrls0.rdQLenPdf::13                     0                       # What read queue length does an incoming req see
system.mem_ctrls0.rdQLenPdf::14                     0                       # What read queue length does an incoming req see
system.mem_ctrls0.rdQLenPdf::15                     0                       # What read queue length does an incoming req see
system.mem_ctrls0.rdQLenPdf::16                     0                       # What read queue length does an incoming req see
system.mem_ctrls0.rdQLenPdf::17                     0                       # What read queue length does an incoming req see
system.mem_ctrls0.rdQLenPdf::18                     0                       # What read queue length does an incoming req see
system.mem_ctrls0.rdQLenPdf::19                     0                       # What read queue length does an incoming req see
system.mem_ctrls0.rdQLenPdf::20                     0                       # What read queue length does an incoming req see
system.mem_ctrls0.rdQLenPdf::21                     0                       # What read queue length does an incoming req see
system.mem_ctrls0.rdQLenPdf::22                     0                       # What read queue length does an incoming req see
system.mem_ctrls0.rdQLenPdf::23                     0                       # What read queue length does an incoming req see
system.mem_ctrls0.rdQLenPdf::24                     0                       # What read queue length does an incoming req see
system.mem_ctrls0.rdQLenPdf::25                     0                       # What read queue length does an incoming req see
system.mem_ctrls0.rdQLenPdf::26                     0                       # What read queue length does an incoming req see
system.mem_ctrls0.rdQLenPdf::27                     0                       # What read queue length does an incoming req see
system.mem_ctrls0.rdQLenPdf::28                     0                       # What read queue length does an incoming req see
system.mem_ctrls0.rdQLenPdf::29                     0                       # What read queue length does an incoming req see
system.mem_ctrls0.rdQLenPdf::30                     0                       # What read queue length does an incoming req see
system.mem_ctrls0.rdQLenPdf::31                     0                       # What read queue length does an incoming req see
system.mem_ctrls0.wrQLenPdf::0                      2                       # What write queue length does an incoming req see
system.mem_ctrls0.wrQLenPdf::1                      2                       # What write queue length does an incoming req see
system.mem_ctrls0.wrQLenPdf::2                      2                       # What write queue length does an incoming req see
system.mem_ctrls0.wrQLenPdf::3                      2                       # What write queue length does an incoming req see
system.mem_ctrls0.wrQLenPdf::4                      2                       # What write queue length does an incoming req see
system.mem_ctrls0.wrQLenPdf::5                      2                       # What write queue length does an incoming req see
system.mem_ctrls0.wrQLenPdf::6                      2                       # What write queue length does an incoming req see
system.mem_ctrls0.wrQLenPdf::7                      2                       # What write queue length does an incoming req see
system.mem_ctrls0.wrQLenPdf::8                      2                       # What write queue length does an incoming req see
system.mem_ctrls0.wrQLenPdf::9                      2                       # What write queue length does an incoming req see
system.mem_ctrls0.wrQLenPdf::10                     2                       # What write queue length does an incoming req see
system.mem_ctrls0.wrQLenPdf::11                     2                       # What write queue length does an incoming req see
system.mem_ctrls0.wrQLenPdf::12                     2                       # What write queue length does an incoming req see
system.mem_ctrls0.wrQLenPdf::13                     2                       # What write queue length does an incoming req see
system.mem_ctrls0.wrQLenPdf::14                     2                       # What write queue length does an incoming req see
system.mem_ctrls0.wrQLenPdf::15                 60076                       # What write queue length does an incoming req see
system.mem_ctrls0.wrQLenPdf::16                 61254                       # What write queue length does an incoming req see
system.mem_ctrls0.wrQLenPdf::17                 73781                       # What write queue length does an incoming req see
system.mem_ctrls0.wrQLenPdf::18                 74639                       # What write queue length does an incoming req see
system.mem_ctrls0.wrQLenPdf::19                 74716                       # What write queue length does an incoming req see
system.mem_ctrls0.wrQLenPdf::20                 74759                       # What write queue length does an incoming req see
system.mem_ctrls0.wrQLenPdf::21                 75169                       # What write queue length does an incoming req see
system.mem_ctrls0.wrQLenPdf::22                 74807                       # What write queue length does an incoming req see
system.mem_ctrls0.wrQLenPdf::23                 74772                       # What write queue length does an incoming req see
system.mem_ctrls0.wrQLenPdf::24                 74736                       # What write queue length does an incoming req see
system.mem_ctrls0.wrQLenPdf::25                 74707                       # What write queue length does an incoming req see
system.mem_ctrls0.wrQLenPdf::26                 74690                       # What write queue length does an incoming req see
system.mem_ctrls0.wrQLenPdf::27                 74673                       # What write queue length does an incoming req see
system.mem_ctrls0.wrQLenPdf::28                 74649                       # What write queue length does an incoming req see
system.mem_ctrls0.wrQLenPdf::29                 74629                       # What write queue length does an incoming req see
system.mem_ctrls0.wrQLenPdf::30                 74686                       # What write queue length does an incoming req see
system.mem_ctrls0.wrQLenPdf::31                 74602                       # What write queue length does an incoming req see
system.mem_ctrls0.wrQLenPdf::32                 74705                       # What write queue length does an incoming req see
system.mem_ctrls0.wrQLenPdf::33                   615                       # What write queue length does an incoming req see
system.mem_ctrls0.wrQLenPdf::34                    54                       # What write queue length does an incoming req see
system.mem_ctrls0.wrQLenPdf::35                     0                       # What write queue length does an incoming req see
system.mem_ctrls0.wrQLenPdf::36                     0                       # What write queue length does an incoming req see
system.mem_ctrls0.wrQLenPdf::37                     0                       # What write queue length does an incoming req see
system.mem_ctrls0.wrQLenPdf::38                     0                       # What write queue length does an incoming req see
system.mem_ctrls0.wrQLenPdf::39                     0                       # What write queue length does an incoming req see
system.mem_ctrls0.wrQLenPdf::40                     0                       # What write queue length does an incoming req see
system.mem_ctrls0.wrQLenPdf::41                     0                       # What write queue length does an incoming req see
system.mem_ctrls0.wrQLenPdf::42                     0                       # What write queue length does an incoming req see
system.mem_ctrls0.wrQLenPdf::43                     0                       # What write queue length does an incoming req see
system.mem_ctrls0.wrQLenPdf::44                     0                       # What write queue length does an incoming req see
system.mem_ctrls0.wrQLenPdf::45                     0                       # What write queue length does an incoming req see
system.mem_ctrls0.wrQLenPdf::46                     0                       # What write queue length does an incoming req see
system.mem_ctrls0.wrQLenPdf::47                     0                       # What write queue length does an incoming req see
system.mem_ctrls0.wrQLenPdf::48                     0                       # What write queue length does an incoming req see
system.mem_ctrls0.wrQLenPdf::49                     0                       # What write queue length does an incoming req see
system.mem_ctrls0.wrQLenPdf::50                     0                       # What write queue length does an incoming req see
system.mem_ctrls0.wrQLenPdf::51                     0                       # What write queue length does an incoming req see
system.mem_ctrls0.wrQLenPdf::52                     0                       # What write queue length does an incoming req see
system.mem_ctrls0.wrQLenPdf::53                     0                       # What write queue length does an incoming req see
system.mem_ctrls0.wrQLenPdf::54                     0                       # What write queue length does an incoming req see
system.mem_ctrls0.wrQLenPdf::55                     0                       # What write queue length does an incoming req see
system.mem_ctrls0.wrQLenPdf::56                     0                       # What write queue length does an incoming req see
system.mem_ctrls0.wrQLenPdf::57                     0                       # What write queue length does an incoming req see
system.mem_ctrls0.wrQLenPdf::58                     0                       # What write queue length does an incoming req see
system.mem_ctrls0.wrQLenPdf::59                     0                       # What write queue length does an incoming req see
system.mem_ctrls0.wrQLenPdf::60                     0                       # What write queue length does an incoming req see
system.mem_ctrls0.wrQLenPdf::61                     0                       # What write queue length does an incoming req see
system.mem_ctrls0.wrQLenPdf::62                     0                       # What write queue length does an incoming req see
system.mem_ctrls0.wrQLenPdf::63                     0                       # What write queue length does an incoming req see
system.mem_ctrls0.bytesPerActivate::samples      1857235                       # Bytes accessed per row activation
system.mem_ctrls0.bytesPerActivate::mean   189.723825                       # Bytes accessed per row activation
system.mem_ctrls0.bytesPerActivate::gmean   135.426979                       # Bytes accessed per row activation
system.mem_ctrls0.bytesPerActivate::stdev   193.112871                       # Bytes accessed per row activation
system.mem_ctrls0.bytesPerActivate::0-127       659392     35.50%     35.50% # Bytes accessed per row activation
system.mem_ctrls0.bytesPerActivate::128-255       773934     41.67%     77.18% # Bytes accessed per row activation
system.mem_ctrls0.bytesPerActivate::256-383       109824      5.91%     83.09% # Bytes accessed per row activation
system.mem_ctrls0.bytesPerActivate::384-511       134882      7.26%     90.35% # Bytes accessed per row activation
system.mem_ctrls0.bytesPerActivate::512-639       106658      5.74%     96.09% # Bytes accessed per row activation
system.mem_ctrls0.bytesPerActivate::640-767        21773      1.17%     97.27% # Bytes accessed per row activation
system.mem_ctrls0.bytesPerActivate::768-895         9141      0.49%     97.76% # Bytes accessed per row activation
system.mem_ctrls0.bytesPerActivate::896-1023         7840      0.42%     98.18% # Bytes accessed per row activation
system.mem_ctrls0.bytesPerActivate::1024-1151        33791      1.82%    100.00% # Bytes accessed per row activation
system.mem_ctrls0.bytesPerActivate::total      1857235                       # Bytes accessed per row activation
system.mem_ctrls0.rdPerTurnAround::samples        74509                       # Reads before turning the bus around for writes
system.mem_ctrls0.rdPerTurnAround::mean     56.220832                       # Reads before turning the bus around for writes
system.mem_ctrls0.rdPerTurnAround::gmean    40.691014                       # Reads before turning the bus around for writes
system.mem_ctrls0.rdPerTurnAround::stdev   279.651922                       # Reads before turning the bus around for writes
system.mem_ctrls0.rdPerTurnAround::0-1023        74445     99.91%     99.91% # Reads before turning the bus around for writes
system.mem_ctrls0.rdPerTurnAround::1024-2047           32      0.04%     99.96% # Reads before turning the bus around for writes
system.mem_ctrls0.rdPerTurnAround::2048-3071            1      0.00%     99.96% # Reads before turning the bus around for writes
system.mem_ctrls0.rdPerTurnAround::5120-6143            1      0.00%     99.96% # Reads before turning the bus around for writes
system.mem_ctrls0.rdPerTurnAround::6144-7167            1      0.00%     99.96% # Reads before turning the bus around for writes
system.mem_ctrls0.rdPerTurnAround::8192-9215            1      0.00%     99.96% # Reads before turning the bus around for writes
system.mem_ctrls0.rdPerTurnAround::10240-11263            3      0.00%     99.97% # Reads before turning the bus around for writes
system.mem_ctrls0.rdPerTurnAround::11264-12287           12      0.02%     99.98% # Reads before turning the bus around for writes
system.mem_ctrls0.rdPerTurnAround::12288-13311            2      0.00%     99.99% # Reads before turning the bus around for writes
system.mem_ctrls0.rdPerTurnAround::13312-14335            8      0.01%    100.00% # Reads before turning the bus around for writes
system.mem_ctrls0.rdPerTurnAround::17408-18431            1      0.00%    100.00% # Reads before turning the bus around for writes
system.mem_ctrls0.rdPerTurnAround::18432-19455            1      0.00%    100.00% # Reads before turning the bus around for writes
system.mem_ctrls0.rdPerTurnAround::31744-32767            1      0.00%    100.00% # Reads before turning the bus around for writes
system.mem_ctrls0.rdPerTurnAround::total        74509                       # Reads before turning the bus around for writes
system.mem_ctrls0.wrPerTurnAround::samples        74509                       # Writes before turning the bus around for reads
system.mem_ctrls0.wrPerTurnAround::mean     17.672120                       # Writes before turning the bus around for reads
system.mem_ctrls0.wrPerTurnAround::gmean    17.652294                       # Writes before turning the bus around for reads
system.mem_ctrls0.wrPerTurnAround::stdev     0.820235                       # Writes before turning the bus around for reads
system.mem_ctrls0.wrPerTurnAround::16           13379     17.96%     17.96% # Writes before turning the bus around for reads
system.mem_ctrls0.wrPerTurnAround::17             780      1.05%     19.00% # Writes before turning the bus around for reads
system.mem_ctrls0.wrPerTurnAround::18           57581     77.28%     96.28% # Writes before turning the bus around for reads
system.mem_ctrls0.wrPerTurnAround::19            2458      3.30%     99.58% # Writes before turning the bus around for reads
system.mem_ctrls0.wrPerTurnAround::20             283      0.38%     99.96% # Writes before turning the bus around for reads
system.mem_ctrls0.wrPerTurnAround::21              28      0.04%    100.00% # Writes before turning the bus around for reads
system.mem_ctrls0.wrPerTurnAround::total        74509                       # Writes before turning the bus around for reads
system.mem_ctrls0.totQLat                 95392857551                       # Total ticks spent queuing
system.mem_ctrls0.totMemAccLat           173935838801                       # Total ticks spent from burst creation until serviced by the DRAM
system.mem_ctrls0.totBusLat               20944795000                       # Total ticks spent in databus transfers
system.mem_ctrls0.avgQLat                    22772.44                       # Average queueing delay per DRAM burst
system.mem_ctrls0.avgBusLat                   5000.00                       # Average bus latency per DRAM burst
system.mem_ctrls0.avgMemAccLat               41522.44                       # Average memory access latency per DRAM burst
system.mem_ctrls0.avgRdBW                      113.63                       # Average DRAM read bandwidth in MiByte/s
system.mem_ctrls0.avgWrBW                       35.72                       # Average achieved write bandwidth in MiByte/s
system.mem_ctrls0.avgRdBWSys                   113.64                       # Average system read bandwidth in MiByte/s
system.mem_ctrls0.avgWrBWSys                    35.72                       # Average system write bandwidth in MiByte/s
system.mem_ctrls0.peakBW                     12800.00                       # Theoretical peak bandwidth in MiByte/s
system.mem_ctrls0.busUtil                        1.17                       # Data bus utilization in percentage
system.mem_ctrls0.busUtilRead                    0.89                       # Data bus utilization in percentage for reads
system.mem_ctrls0.busUtilWrite                   0.28                       # Data bus utilization in percentage for writes
system.mem_ctrls0.avgRdQLen                      1.01                       # Average read queue length when enqueuing
system.mem_ctrls0.avgWrQLen                     24.24                       # Average write queue length when enqueuing
system.mem_ctrls0.readRowHits                 2560497                       # Number of row buffer hits during reads
system.mem_ctrls0.writeRowHits                1087950                       # Number of row buffer hits during writes
system.mem_ctrls0.readRowHitRate                61.12                       # Row buffer hit rate for reads
system.mem_ctrls0.writeRowHitRate               82.62                       # Row buffer hit rate for writes
system.mem_ctrls0.avgGap                    428514.52                       # Average gap between requests
system.mem_ctrls0.pageHitRate                   66.27                       # Row buffer hit rate, read and write combined
system.mem_ctrls0_0.actEnergy              6642227760                       # Energy for activate commands per rank (pJ)
system.mem_ctrls0_0.preEnergy              3530405010                       # Energy for precharge commands per rank (pJ)
system.mem_ctrls0_0.readEnergy            15009308160                       # Energy for read commands per rank (pJ)
system.mem_ctrls0_0.writeEnergy            3447178380                       # Energy for write commands per rank (pJ)
system.mem_ctrls0_0.refreshEnergy        177959792400.000031                       # Energy for refresh commands per rank (pJ)
system.mem_ctrls0_0.actBackEnergy         92009740290                       # Energy for active background per rank (pJ)
system.mem_ctrls0_0.preBackEnergy          6483770400                       # Energy for precharge background per rank (pJ)
system.mem_ctrls0_0.actPowerDownEnergy   690318639240                       # Energy for active power-down per rank (pJ)
system.mem_ctrls0_0.prePowerDownEnergy   139658430240                       # Energy for precharge power-down per rank (pJ)
system.mem_ctrls0_0.selfRefreshEnergy     75216455280                       # Energy for self refresh per rank (pJ)
system.mem_ctrls0_0.totalEnergy          1210305672660                       # Total energy per rank (pJ)
system.mem_ctrls0_0.averagePower           512.976401                       # Core power per rank (mW)
system.mem_ctrls0_0.totalIdleTime        2140657262684                       # Total Idle time Per DRAM Rank
system.mem_ctrls0_0.memoryStateTime::IDLE   7503938570                       # Time in different power states
system.mem_ctrls0_0.memoryStateTime::REF  75413374000                       # Time in different power states
system.mem_ctrls0_0.memoryStateTime::SREF 263101638517                       # Time in different power states
system.mem_ctrls0_0.memoryStateTime::PRE_PDN 363696649518                       # Time in different power states
system.mem_ctrls0_0.memoryStateTime::ACT 135804252511                       # Time in different power states
system.mem_ctrls0_0.memoryStateTime::ACT_PDN 1513858974649                       # Time in different power states
system.mem_ctrls0_1.actEnergy              6618494400                       # Energy for activate commands per rank (pJ)
system.mem_ctrls0_1.preEnergy              3517801815                       # Energy for precharge commands per rank (pJ)
system.mem_ctrls0_1.readEnergy            14899851960                       # Energy for read commands per rank (pJ)
system.mem_ctrls0_1.writeEnergy            3426147000                       # Energy for write commands per rank (pJ)
system.mem_ctrls0_1.refreshEnergy        177731146320.000031                       # Energy for refresh commands per rank (pJ)
system.mem_ctrls0_1.actBackEnergy         92162108130                       # Energy for active background per rank (pJ)
system.mem_ctrls0_1.preBackEnergy          6459992160                       # Energy for precharge background per rank (pJ)
system.mem_ctrls0_1.actPowerDownEnergy   688508372250                       # Energy for active power-down per rank (pJ)
system.mem_ctrls0_1.prePowerDownEnergy   138620320800                       # Energy for precharge power-down per rank (pJ)
system.mem_ctrls0_1.selfRefreshEnergy     77019093540                       # Energy for self refresh per rank (pJ)
system.mem_ctrls0_1.totalEnergy          1208992541445                       # Total energy per rank (pJ)
system.mem_ctrls0_1.averagePower           512.419845                       # Core power per rank (mW)
system.mem_ctrls0_1.totalIdleTime        2140384436453                       # Total Idle time Per DRAM Rank
system.mem_ctrls0_1.memoryStateTime::IDLE   7472654897                       # Time in different power states
system.mem_ctrls0_1.memoryStateTime::REF  75319234000                       # Time in different power states
system.mem_ctrls0_1.memoryStateTime::SREF 269503972009                       # Time in different power states
system.mem_ctrls0_1.memoryStateTime::PRE_PDN 360985868454                       # Time in different power states
system.mem_ctrls0_1.memoryStateTime::ACT 136202332221                       # Time in different power states
system.mem_ctrls0_1.memoryStateTime::ACT_PDN 1509894766184                       # Time in different power states
system.mem_ctrls1.pwrStateResidencyTicks::UNDEFINED 75629532628467                       # Cumulative time (in ticks) in various power states
system.mem_ctrls1.bytes_read::cpu.inst            128                       # Number of bytes read from this memory
system.mem_ctrls1.bytes_read::cpu.data            192                       # Number of bytes read from this memory
system.mem_ctrls1.bytes_read::switch_cpus.inst        43840                       # Number of bytes read from this memory
system.mem_ctrls1.bytes_read::switch_cpus.data    227079488                       # Number of bytes read from this memory
system.mem_ctrls1.bytes_read::switch_cpus_1.inst         3200                       # Number of bytes read from this memory
system.mem_ctrls1.bytes_read::switch_cpus_1.data     40995200                       # Number of bytes read from this memory
system.mem_ctrls1.bytes_read::total         268122048                       # Number of bytes read from this memory
system.mem_ctrls1.bytes_inst_read::cpu.inst          128                       # Number of instructions bytes read from this memory
system.mem_ctrls1.bytes_inst_read::switch_cpus.inst        43840                       # Number of instructions bytes read from this memory
system.mem_ctrls1.bytes_inst_read::switch_cpus_1.inst         3200                       # Number of instructions bytes read from this memory
system.mem_ctrls1.bytes_inst_read::total        47168                       # Number of instructions bytes read from this memory
system.mem_ctrls1.bytes_written::writebacks     84275904                       # Number of bytes written to this memory
system.mem_ctrls1.bytes_written::total       84275904                       # Number of bytes written to this memory
system.mem_ctrls1.num_reads::cpu.inst               2                       # Number of read requests responded to by this memory
system.mem_ctrls1.num_reads::cpu.data               3                       # Number of read requests responded to by this memory
system.mem_ctrls1.num_reads::switch_cpus.inst          685                       # Number of read requests responded to by this memory
system.mem_ctrls1.num_reads::switch_cpus.data      3548117                       # Number of read requests responded to by this memory
system.mem_ctrls1.num_reads::switch_cpus_1.inst           50                       # Number of read requests responded to by this memory
system.mem_ctrls1.num_reads::switch_cpus_1.data       640550                       # Number of read requests responded to by this memory
system.mem_ctrls1.num_reads::total            4189407                       # Number of read requests responded to by this memory
system.mem_ctrls1.num_writes::writebacks      1316811                       # Number of write requests responded to by this memory
system.mem_ctrls1.num_writes::total           1316811                       # Number of write requests responded to by this memory
system.mem_ctrls1.bw_read::cpu.inst                54                       # Total read bandwidth from this memory (bytes/s)
system.mem_ctrls1.bw_read::cpu.data                81                       # Total read bandwidth from this memory (bytes/s)
system.mem_ctrls1.bw_read::switch_cpus.inst        18581                       # Total read bandwidth from this memory (bytes/s)
system.mem_ctrls1.bw_read::switch_cpus.data     96245455                       # Total read bandwidth from this memory (bytes/s)
system.mem_ctrls1.bw_read::switch_cpus_1.inst         1356                       # Total read bandwidth from this memory (bytes/s)
system.mem_ctrls1.bw_read::switch_cpus_1.data     17375421                       # Total read bandwidth from this memory (bytes/s)
system.mem_ctrls1.bw_read::total            113640949                       # Total read bandwidth from this memory (bytes/s)
system.mem_ctrls1.bw_inst_read::cpu.inst           54                       # Instruction read bandwidth from this memory (bytes/s)
system.mem_ctrls1.bw_inst_read::switch_cpus.inst        18581                       # Instruction read bandwidth from this memory (bytes/s)
system.mem_ctrls1.bw_inst_read::switch_cpus_1.inst         1356                       # Instruction read bandwidth from this memory (bytes/s)
system.mem_ctrls1.bw_inst_read::total           19992                       # Instruction read bandwidth from this memory (bytes/s)
system.mem_ctrls1.bw_write::writebacks       35719531                       # Write bandwidth from this memory (bytes/s)
system.mem_ctrls1.bw_write::total            35719531                       # Write bandwidth from this memory (bytes/s)
system.mem_ctrls1.bw_total::writebacks       35719531                       # Total bandwidth to/from this memory (bytes/s)
system.mem_ctrls1.bw_total::cpu.inst               54                       # Total bandwidth to/from this memory (bytes/s)
system.mem_ctrls1.bw_total::cpu.data               81                       # Total bandwidth to/from this memory (bytes/s)
system.mem_ctrls1.bw_total::switch_cpus.inst        18581                       # Total bandwidth to/from this memory (bytes/s)
system.mem_ctrls1.bw_total::switch_cpus.data     96245455                       # Total bandwidth to/from this memory (bytes/s)
system.mem_ctrls1.bw_total::switch_cpus_1.inst         1356                       # Total bandwidth to/from this memory (bytes/s)
system.mem_ctrls1.bw_total::switch_cpus_1.data     17375421                       # Total bandwidth to/from this memory (bytes/s)
system.mem_ctrls1.bw_total::total           149360479                       # Total bandwidth to/from this memory (bytes/s)
system.mem_ctrls1.readReqs                    4189407                       # Number of read requests accepted
system.mem_ctrls1.writeReqs                   1316811                       # Number of write requests accepted
system.mem_ctrls1.readBursts                  4189407                       # Number of DRAM read bursts, including those serviced by the write queue
system.mem_ctrls1.writeBursts                 1316811                       # Number of DRAM write bursts, including those merged in the write queue
system.mem_ctrls1.bytesReadDRAM             268104640                       # Total number of bytes read from DRAM
system.mem_ctrls1.bytesReadWrQ                  17408                       # Total number of bytes read from write queue
system.mem_ctrls1.bytesWritten               84274816                       # Total number of bytes written to DRAM
system.mem_ctrls1.bytesReadSys              268122048                       # Total read bytes from the system interface side
system.mem_ctrls1.bytesWrittenSys            84275904                       # Total written bytes from the system interface side
system.mem_ctrls1.servicedByWrQ                   272                       # Number of DRAM read bursts serviced by the write queue
system.mem_ctrls1.mergedWrBursts                    0                       # Number of DRAM write bursts merged with an existing one
system.mem_ctrls1.neitherReadNorWriteReqs            0                       # Number of requests that are neither read nor write
system.mem_ctrls1.perBankRdBursts::0           269403                       # Per bank write bursts
system.mem_ctrls1.perBankRdBursts::1           265671                       # Per bank write bursts
system.mem_ctrls1.perBankRdBursts::2           261471                       # Per bank write bursts
system.mem_ctrls1.perBankRdBursts::3           259312                       # Per bank write bursts
system.mem_ctrls1.perBankRdBursts::4           258711                       # Per bank write bursts
system.mem_ctrls1.perBankRdBursts::5           262837                       # Per bank write bursts
system.mem_ctrls1.perBankRdBursts::6           260902                       # Per bank write bursts
system.mem_ctrls1.perBankRdBursts::7           263828                       # Per bank write bursts
system.mem_ctrls1.perBankRdBursts::8           269024                       # Per bank write bursts
system.mem_ctrls1.perBankRdBursts::9           264763                       # Per bank write bursts
system.mem_ctrls1.perBankRdBursts::10          258559                       # Per bank write bursts
system.mem_ctrls1.perBankRdBursts::11          254318                       # Per bank write bursts
system.mem_ctrls1.perBankRdBursts::12          254758                       # Per bank write bursts
system.mem_ctrls1.perBankRdBursts::13          261038                       # Per bank write bursts
system.mem_ctrls1.perBankRdBursts::14          261816                       # Per bank write bursts
system.mem_ctrls1.perBankRdBursts::15          262724                       # Per bank write bursts
system.mem_ctrls1.perBankWrBursts::0            83702                       # Per bank write bursts
system.mem_ctrls1.perBankWrBursts::1            82741                       # Per bank write bursts
system.mem_ctrls1.perBankWrBursts::2            82527                       # Per bank write bursts
system.mem_ctrls1.perBankWrBursts::3            82940                       # Per bank write bursts
system.mem_ctrls1.perBankWrBursts::4            82404                       # Per bank write bursts
system.mem_ctrls1.perBankWrBursts::5            82750                       # Per bank write bursts
system.mem_ctrls1.perBankWrBursts::6            81959                       # Per bank write bursts
system.mem_ctrls1.perBankWrBursts::7            81359                       # Per bank write bursts
system.mem_ctrls1.perBankWrBursts::8            81742                       # Per bank write bursts
system.mem_ctrls1.perBankWrBursts::9            82011                       # Per bank write bursts
system.mem_ctrls1.perBankWrBursts::10           81900                       # Per bank write bursts
system.mem_ctrls1.perBankWrBursts::11           81442                       # Per bank write bursts
system.mem_ctrls1.perBankWrBursts::12           81141                       # Per bank write bursts
system.mem_ctrls1.perBankWrBursts::13           81993                       # Per bank write bursts
system.mem_ctrls1.perBankWrBursts::14           83280                       # Per bank write bursts
system.mem_ctrls1.perBankWrBursts::15           82903                       # Per bank write bursts
system.mem_ctrls1.numRdRetry                        0                       # Number of times read queue was full causing retry
system.mem_ctrls1.numWrRetry                        0                       # Number of times write queue was full causing retry
system.mem_ctrls1.totGap                 2359378625634                       # Total gap between requests
system.mem_ctrls1.readPktSize::0                    0                       # Read request sizes (log2)
system.mem_ctrls1.readPktSize::1                    0                       # Read request sizes (log2)
system.mem_ctrls1.readPktSize::2                    0                       # Read request sizes (log2)
system.mem_ctrls1.readPktSize::3                    0                       # Read request sizes (log2)
system.mem_ctrls1.readPktSize::4                    0                       # Read request sizes (log2)
system.mem_ctrls1.readPktSize::5                    0                       # Read request sizes (log2)
system.mem_ctrls1.readPktSize::6              4189407                       # Read request sizes (log2)
system.mem_ctrls1.writePktSize::0                   0                       # Write request sizes (log2)
system.mem_ctrls1.writePktSize::1                   0                       # Write request sizes (log2)
system.mem_ctrls1.writePktSize::2                   0                       # Write request sizes (log2)
system.mem_ctrls1.writePktSize::3                   0                       # Write request sizes (log2)
system.mem_ctrls1.writePktSize::4                   0                       # Write request sizes (log2)
system.mem_ctrls1.writePktSize::5                   0                       # Write request sizes (log2)
system.mem_ctrls1.writePktSize::6             1316811                       # Write request sizes (log2)
system.mem_ctrls1.rdQLenPdf::0                4053049                       # What read queue length does an incoming req see
system.mem_ctrls1.rdQLenPdf::1                 109938                       # What read queue length does an incoming req see
system.mem_ctrls1.rdQLenPdf::2                  24618                       # What read queue length does an incoming req see
system.mem_ctrls1.rdQLenPdf::3                   1530                       # What read queue length does an incoming req see
system.mem_ctrls1.rdQLenPdf::4                      0                       # What read queue length does an incoming req see
system.mem_ctrls1.rdQLenPdf::5                      0                       # What read queue length does an incoming req see
system.mem_ctrls1.rdQLenPdf::6                      0                       # What read queue length does an incoming req see
system.mem_ctrls1.rdQLenPdf::7                      0                       # What read queue length does an incoming req see
system.mem_ctrls1.rdQLenPdf::8                      0                       # What read queue length does an incoming req see
system.mem_ctrls1.rdQLenPdf::9                      0                       # What read queue length does an incoming req see
system.mem_ctrls1.rdQLenPdf::10                     0                       # What read queue length does an incoming req see
system.mem_ctrls1.rdQLenPdf::11                     0                       # What read queue length does an incoming req see
system.mem_ctrls1.rdQLenPdf::12                     0                       # What read queue length does an incoming req see
system.mem_ctrls1.rdQLenPdf::13                     0                       # What read queue length does an incoming req see
system.mem_ctrls1.rdQLenPdf::14                     0                       # What read queue length does an incoming req see
system.mem_ctrls1.rdQLenPdf::15                     0                       # What read queue length does an incoming req see
system.mem_ctrls1.rdQLenPdf::16                     0                       # What read queue length does an incoming req see
system.mem_ctrls1.rdQLenPdf::17                     0                       # What read queue length does an incoming req see
system.mem_ctrls1.rdQLenPdf::18                     0                       # What read queue length does an incoming req see
system.mem_ctrls1.rdQLenPdf::19                     0                       # What read queue length does an incoming req see
system.mem_ctrls1.rdQLenPdf::20                     0                       # What read queue length does an incoming req see
system.mem_ctrls1.rdQLenPdf::21                     0                       # What read queue length does an incoming req see
system.mem_ctrls1.rdQLenPdf::22                     0                       # What read queue length does an incoming req see
system.mem_ctrls1.rdQLenPdf::23                     0                       # What read queue length does an incoming req see
system.mem_ctrls1.rdQLenPdf::24                     0                       # What read queue length does an incoming req see
system.mem_ctrls1.rdQLenPdf::25                     0                       # What read queue length does an incoming req see
system.mem_ctrls1.rdQLenPdf::26                     0                       # What read queue length does an incoming req see
system.mem_ctrls1.rdQLenPdf::27                     0                       # What read queue length does an incoming req see
system.mem_ctrls1.rdQLenPdf::28                     0                       # What read queue length does an incoming req see
system.mem_ctrls1.rdQLenPdf::29                     0                       # What read queue length does an incoming req see
system.mem_ctrls1.rdQLenPdf::30                     0                       # What read queue length does an incoming req see
system.mem_ctrls1.rdQLenPdf::31                     0                       # What read queue length does an incoming req see
system.mem_ctrls1.wrQLenPdf::0                      2                       # What write queue length does an incoming req see
system.mem_ctrls1.wrQLenPdf::1                      2                       # What write queue length does an incoming req see
system.mem_ctrls1.wrQLenPdf::2                      2                       # What write queue length does an incoming req see
system.mem_ctrls1.wrQLenPdf::3                      2                       # What write queue length does an incoming req see
system.mem_ctrls1.wrQLenPdf::4                      2                       # What write queue length does an incoming req see
system.mem_ctrls1.wrQLenPdf::5                      2                       # What write queue length does an incoming req see
system.mem_ctrls1.wrQLenPdf::6                      2                       # What write queue length does an incoming req see
system.mem_ctrls1.wrQLenPdf::7                      2                       # What write queue length does an incoming req see
system.mem_ctrls1.wrQLenPdf::8                      2                       # What write queue length does an incoming req see
system.mem_ctrls1.wrQLenPdf::9                      2                       # What write queue length does an incoming req see
system.mem_ctrls1.wrQLenPdf::10                     2                       # What write queue length does an incoming req see
system.mem_ctrls1.wrQLenPdf::11                     2                       # What write queue length does an incoming req see
system.mem_ctrls1.wrQLenPdf::12                     2                       # What write queue length does an incoming req see
system.mem_ctrls1.wrQLenPdf::13                     2                       # What write queue length does an incoming req see
system.mem_ctrls1.wrQLenPdf::14                     2                       # What write queue length does an incoming req see
system.mem_ctrls1.wrQLenPdf::15                 59972                       # What write queue length does an incoming req see
system.mem_ctrls1.wrQLenPdf::16                 61124                       # What write queue length does an incoming req see
system.mem_ctrls1.wrQLenPdf::17                 73677                       # What write queue length does an incoming req see
system.mem_ctrls1.wrQLenPdf::18                 74672                       # What write queue length does an incoming req see
system.mem_ctrls1.wrQLenPdf::19                 74746                       # What write queue length does an incoming req see
system.mem_ctrls1.wrQLenPdf::20                 74772                       # What write queue length does an incoming req see
system.mem_ctrls1.wrQLenPdf::21                 75183                       # What write queue length does an incoming req see
system.mem_ctrls1.wrQLenPdf::22                 74877                       # What write queue length does an incoming req see
system.mem_ctrls1.wrQLenPdf::23                 74791                       # What write queue length does an incoming req see
system.mem_ctrls1.wrQLenPdf::24                 74776                       # What write queue length does an incoming req see
system.mem_ctrls1.wrQLenPdf::25                 74696                       # What write queue length does an incoming req see
system.mem_ctrls1.wrQLenPdf::26                 74728                       # What write queue length does an incoming req see
system.mem_ctrls1.wrQLenPdf::27                 74680                       # What write queue length does an incoming req see
system.mem_ctrls1.wrQLenPdf::28                 74654                       # What write queue length does an incoming req see
system.mem_ctrls1.wrQLenPdf::29                 74654                       # What write queue length does an incoming req see
system.mem_ctrls1.wrQLenPdf::30                 74739                       # What write queue length does an incoming req see
system.mem_ctrls1.wrQLenPdf::31                 74628                       # What write queue length does an incoming req see
system.mem_ctrls1.wrQLenPdf::32                 74709                       # What write queue length does an incoming req see
system.mem_ctrls1.wrQLenPdf::33                   641                       # What write queue length does an incoming req see
system.mem_ctrls1.wrQLenPdf::34                    57                       # What write queue length does an incoming req see
system.mem_ctrls1.wrQLenPdf::35                     5                       # What write queue length does an incoming req see
system.mem_ctrls1.wrQLenPdf::36                     0                       # What write queue length does an incoming req see
system.mem_ctrls1.wrQLenPdf::37                     0                       # What write queue length does an incoming req see
system.mem_ctrls1.wrQLenPdf::38                     0                       # What write queue length does an incoming req see
system.mem_ctrls1.wrQLenPdf::39                     0                       # What write queue length does an incoming req see
system.mem_ctrls1.wrQLenPdf::40                     0                       # What write queue length does an incoming req see
system.mem_ctrls1.wrQLenPdf::41                     0                       # What write queue length does an incoming req see
system.mem_ctrls1.wrQLenPdf::42                     0                       # What write queue length does an incoming req see
system.mem_ctrls1.wrQLenPdf::43                     0                       # What write queue length does an incoming req see
system.mem_ctrls1.wrQLenPdf::44                     0                       # What write queue length does an incoming req see
system.mem_ctrls1.wrQLenPdf::45                     0                       # What write queue length does an incoming req see
system.mem_ctrls1.wrQLenPdf::46                     0                       # What write queue length does an incoming req see
system.mem_ctrls1.wrQLenPdf::47                     0                       # What write queue length does an incoming req see
system.mem_ctrls1.wrQLenPdf::48                     0                       # What write queue length does an incoming req see
system.mem_ctrls1.wrQLenPdf::49                     0                       # What write queue length does an incoming req see
system.mem_ctrls1.wrQLenPdf::50                     0                       # What write queue length does an incoming req see
system.mem_ctrls1.wrQLenPdf::51                     0                       # What write queue length does an incoming req see
system.mem_ctrls1.wrQLenPdf::52                     0                       # What write queue length does an incoming req see
system.mem_ctrls1.wrQLenPdf::53                     0                       # What write queue length does an incoming req see
system.mem_ctrls1.wrQLenPdf::54                     0                       # What write queue length does an incoming req see
system.mem_ctrls1.wrQLenPdf::55                     0                       # What write queue length does an incoming req see
system.mem_ctrls1.wrQLenPdf::56                     0                       # What write queue length does an incoming req see
system.mem_ctrls1.wrQLenPdf::57                     0                       # What write queue length does an incoming req see
system.mem_ctrls1.wrQLenPdf::58                     0                       # What write queue length does an incoming req see
system.mem_ctrls1.wrQLenPdf::59                     0                       # What write queue length does an incoming req see
system.mem_ctrls1.wrQLenPdf::60                     0                       # What write queue length does an incoming req see
system.mem_ctrls1.wrQLenPdf::61                     0                       # What write queue length does an incoming req see
system.mem_ctrls1.wrQLenPdf::62                     0                       # What write queue length does an incoming req see
system.mem_ctrls1.wrQLenPdf::63                     0                       # What write queue length does an incoming req see
system.mem_ctrls1.bytesPerActivate::samples      1860870                       # Bytes accessed per row activation
system.mem_ctrls1.bytesPerActivate::mean   189.361681                       # Bytes accessed per row activation
system.mem_ctrls1.bytesPerActivate::gmean   135.046268                       # Bytes accessed per row activation
system.mem_ctrls1.bytesPerActivate::stdev   193.126175                       # Bytes accessed per row activation
system.mem_ctrls1.bytesPerActivate::0-127       666527     35.82%     35.82% # Bytes accessed per row activation
system.mem_ctrls1.bytesPerActivate::128-255       770374     41.40%     77.22% # Bytes accessed per row activation
system.mem_ctrls1.bytesPerActivate::256-383       109985      5.91%     83.13% # Bytes accessed per row activation
system.mem_ctrls1.bytesPerActivate::384-511       134896      7.25%     90.38% # Bytes accessed per row activation
system.mem_ctrls1.bytesPerActivate::512-639       106581      5.73%     96.10% # Bytes accessed per row activation
system.mem_ctrls1.bytesPerActivate::640-767        21568      1.16%     97.26% # Bytes accessed per row activation
system.mem_ctrls1.bytesPerActivate::768-895         9213      0.50%     97.76% # Bytes accessed per row activation
system.mem_ctrls1.bytesPerActivate::896-1023         7794      0.42%     98.18% # Bytes accessed per row activation
system.mem_ctrls1.bytesPerActivate::1024-1151        33932      1.82%    100.00% # Bytes accessed per row activation
system.mem_ctrls1.bytesPerActivate::total      1860870                       # Bytes accessed per row activation
system.mem_ctrls1.rdPerTurnAround::samples        74524                       # Reads before turning the bus around for writes
system.mem_ctrls1.rdPerTurnAround::mean     56.211730                       # Reads before turning the bus around for writes
system.mem_ctrls1.rdPerTurnAround::gmean    40.684069                       # Reads before turning the bus around for writes
system.mem_ctrls1.rdPerTurnAround::stdev   281.383118                       # Reads before turning the bus around for writes
system.mem_ctrls1.rdPerTurnAround::0-1023        74467     99.92%     99.92% # Reads before turning the bus around for writes
system.mem_ctrls1.rdPerTurnAround::1024-2047           26      0.03%     99.96% # Reads before turning the bus around for writes
system.mem_ctrls1.rdPerTurnAround::5120-6143            1      0.00%     99.96% # Reads before turning the bus around for writes
system.mem_ctrls1.rdPerTurnAround::9216-10239            2      0.00%     99.96% # Reads before turning the bus around for writes
system.mem_ctrls1.rdPerTurnAround::10240-11263            6      0.01%     99.97% # Reads before turning the bus around for writes
system.mem_ctrls1.rdPerTurnAround::11264-12287            8      0.01%     99.98% # Reads before turning the bus around for writes
system.mem_ctrls1.rdPerTurnAround::12288-13311            2      0.00%     99.98% # Reads before turning the bus around for writes
system.mem_ctrls1.rdPerTurnAround::13312-14335            9      0.01%    100.00% # Reads before turning the bus around for writes
system.mem_ctrls1.rdPerTurnAround::17408-18431            2      0.00%    100.00% # Reads before turning the bus around for writes
system.mem_ctrls1.rdPerTurnAround::31744-32767            1      0.00%    100.00% # Reads before turning the bus around for writes
system.mem_ctrls1.rdPerTurnAround::total        74524                       # Reads before turning the bus around for writes
system.mem_ctrls1.wrPerTurnAround::samples        74524                       # Writes before turning the bus around for reads
system.mem_ctrls1.wrPerTurnAround::mean     17.669395                       # Writes before turning the bus around for reads
system.mem_ctrls1.wrPerTurnAround::gmean    17.649398                       # Writes before turning the bus around for reads
system.mem_ctrls1.wrPerTurnAround::stdev     0.824026                       # Writes before turning the bus around for reads
system.mem_ctrls1.wrPerTurnAround::16           13513     18.13%     18.13% # Writes before turning the bus around for reads
system.mem_ctrls1.wrPerTurnAround::17             752      1.01%     19.14% # Writes before turning the bus around for reads
system.mem_ctrls1.wrPerTurnAround::18           57450     77.09%     96.23% # Writes before turning the bus around for reads
system.mem_ctrls1.wrPerTurnAround::19            2518      3.38%     99.61% # Writes before turning the bus around for reads
system.mem_ctrls1.wrPerTurnAround::20             260      0.35%     99.96% # Writes before turning the bus around for reads
system.mem_ctrls1.wrPerTurnAround::21              29      0.04%    100.00% # Writes before turning the bus around for reads
system.mem_ctrls1.wrPerTurnAround::23               1      0.00%    100.00% # Writes before turning the bus around for reads
system.mem_ctrls1.wrPerTurnAround::28               1      0.00%    100.00% # Writes before turning the bus around for reads
system.mem_ctrls1.wrPerTurnAround::total        74524                       # Writes before turning the bus around for reads
system.mem_ctrls1.totQLat                 94862062185                       # Total ticks spent queuing
system.mem_ctrls1.totMemAccLat           173408343435                       # Total ticks spent from burst creation until serviced by the DRAM
system.mem_ctrls1.totBusLat               20945675000                       # Total ticks spent in databus transfers
system.mem_ctrls1.avgQLat                    22644.79                       # Average queueing delay per DRAM burst
system.mem_ctrls1.avgBusLat                   5000.00                       # Average bus latency per DRAM burst
system.mem_ctrls1.avgMemAccLat               41394.79                       # Average memory access latency per DRAM burst
system.mem_ctrls1.avgRdBW                      113.63                       # Average DRAM read bandwidth in MiByte/s
system.mem_ctrls1.avgWrBW                       35.72                       # Average achieved write bandwidth in MiByte/s
system.mem_ctrls1.avgRdBWSys                   113.64                       # Average system read bandwidth in MiByte/s
system.mem_ctrls1.avgWrBWSys                    35.72                       # Average system write bandwidth in MiByte/s
system.mem_ctrls1.peakBW                     12800.00                       # Theoretical peak bandwidth in MiByte/s
system.mem_ctrls1.busUtil                        1.17                       # Data bus utilization in percentage
system.mem_ctrls1.busUtilRead                    0.89                       # Data bus utilization in percentage for reads
system.mem_ctrls1.busUtilWrite                   0.28                       # Data bus utilization in percentage for writes
system.mem_ctrls1.avgRdQLen                      1.01                       # Average read queue length when enqueuing
system.mem_ctrls1.avgWrQLen                     24.43                       # Average write queue length when enqueuing
system.mem_ctrls1.readRowHits                 2556816                       # Number of row buffer hits during reads
system.mem_ctrls1.writeRowHits                1088233                       # Number of row buffer hits during writes
system.mem_ctrls1.readRowHitRate                61.03                       # Row buffer hit rate for reads
system.mem_ctrls1.writeRowHitRate               82.64                       # Row buffer hit rate for writes
system.mem_ctrls1.avgGap                    428493.50                       # Average gap between requests
system.mem_ctrls1.pageHitRate                   66.20                       # Row buffer hit rate, read and write combined
system.mem_ctrls1_0.actEnergy              6670045200                       # Energy for activate commands per rank (pJ)
system.mem_ctrls1_0.preEnergy              3545190330                       # Energy for precharge commands per rank (pJ)
system.mem_ctrls1_0.readEnergy            15009243900                       # Energy for read commands per rank (pJ)
system.mem_ctrls1_0.writeEnergy            3447194040                       # Energy for write commands per rank (pJ)
system.mem_ctrls1_0.refreshEnergy        177932133600.000031                       # Energy for refresh commands per rank (pJ)
system.mem_ctrls1_0.actBackEnergy         92130317520                       # Energy for active background per rank (pJ)
system.mem_ctrls1_0.preBackEnergy          6476538240                       # Energy for precharge background per rank (pJ)
system.mem_ctrls1_0.actPowerDownEnergy   690852846660                       # Energy for active power-down per rank (pJ)
system.mem_ctrls1_0.prePowerDownEnergy   138855305280                       # Energy for precharge power-down per rank (pJ)
system.mem_ctrls1_0.selfRefreshEnergy     75402186360                       # Energy for self refresh per rank (pJ)
system.mem_ctrls1_0.totalEnergy          1210345721280                       # Total energy per rank (pJ)
system.mem_ctrls1_0.averagePower           512.993378                       # Core power per rank (mW)
system.mem_ctrls1_0.totalIdleTime        2140420931153                       # Total Idle time Per DRAM Rank
system.mem_ctrls1_0.memoryStateTime::IDLE   7476286064                       # Time in different power states
system.mem_ctrls1_0.memoryStateTime::REF  75401860000                       # Time in different power states
system.mem_ctrls1_0.memoryStateTime::SREF 263787029721                       # Time in different power states
system.mem_ctrls1_0.memoryStateTime::PRE_PDN 361595757794                       # Time in different power states
system.mem_ctrls1_0.memoryStateTime::ACT 136079615652                       # Time in different power states
system.mem_ctrls1_0.memoryStateTime::ACT_PDN 1515038278534                       # Time in different power states
system.mem_ctrls1_1.actEnergy              6616638000                       # Energy for activate commands per rank (pJ)
system.mem_ctrls1_1.preEnergy              3516811320                       # Energy for precharge commands per rank (pJ)
system.mem_ctrls1_1.readEnergy            14901180000                       # Energy for read commands per rank (pJ)
system.mem_ctrls1_1.writeEnergy            3426470640                       # Energy for write commands per rank (pJ)
system.mem_ctrls1_1.refreshEnergy        177611906160.000031                       # Energy for refresh commands per rank (pJ)
system.mem_ctrls1_1.actBackEnergy         92301026820                       # Energy for active background per rank (pJ)
system.mem_ctrls1_1.preBackEnergy          6452214720                       # Energy for precharge background per rank (pJ)
system.mem_ctrls1_1.actPowerDownEnergy   687186222480                       # Energy for active power-down per rank (pJ)
system.mem_ctrls1_1.prePowerDownEnergy   139555878240                       # Energy for precharge power-down per rank (pJ)
system.mem_ctrls1_1.selfRefreshEnergy     76960951425                       # Energy for self refresh per rank (pJ)
system.mem_ctrls1_1.totalEnergy          1208557572405                       # Total energy per rank (pJ)
system.mem_ctrls1_1.averagePower           512.235489                       # Core power per rank (mW)
system.mem_ctrls1_1.totalIdleTime        2140105691366                       # Total Idle time Per DRAM Rank
system.mem_ctrls1_1.memoryStateTime::IDLE   7461298377                       # Time in different power states
system.mem_ctrls1_1.memoryStateTime::REF  75267984000                       # Time in different power states
system.mem_ctrls1_1.memoryStateTime::SREF 269684669656                       # Time in different power states
system.mem_ctrls1_1.memoryStateTime::PRE_PDN 363438637881                       # Time in different power states
system.mem_ctrls1_1.memoryStateTime::ACT 136543505479                       # Time in different power states
system.mem_ctrls1_1.memoryStateTime::ACT_PDN 1506982732372                       # Time in different power states
system.pwrStateResidencyTicks::UNDEFINED 75629532628467                       # Cumulative time (in ticks) in various power states
system.cpu.branchPred.lookups                       2                       # Number of BP lookups
system.cpu.branchPred.condPredicted                 2                       # Number of conditional branches predicted
system.cpu.branchPred.condIncorrect                 1                       # Number of conditional branches incorrect
system.cpu.branchPred.BTBLookups                    0                       # Number of BTB lookups
system.cpu.branchPred.BTBHits                       0                       # Number of BTB hits
system.cpu.branchPred.BTBCorrect                    0                       # Number of correct BTB predictions (this stat may not work properly.
system.cpu.branchPred.BTBHitPct                   nan                       # BTB Hit Percentage
system.cpu.branchPred.usedRAS                       0                       # Number of times the RAS was used to get a target.
system.cpu.branchPred.RASInCorrect                  0                       # Number of incorrect RAS predictions.
system.cpu.branchPred.indirectLookups               0                       # Number of indirect predictor lookups.
system.cpu.branchPred.indirectHits                  0                       # Number of indirect target hits.
system.cpu.branchPred.indirectMisses                0                       # Number of indirect misses.
system.cpu.branchPredindirectMispredicted            0                       # Number of mispredicted indirect branches.
system.cpu_voltage_domain.voltage                   1                       # Voltage in Volts
system.cpu_clk_domain.clock                       333                       # Clock period in ticks
system.cpu.dtb.fetch_hits                           0                       # ITB hits
system.cpu.dtb.fetch_misses                         0                       # ITB misses
system.cpu.dtb.fetch_acv                            0                       # ITB acv
system.cpu.dtb.fetch_accesses                       0                       # ITB accesses
system.cpu.dtb.read_hits                           28                       # DTB read hits
system.cpu.dtb.read_misses                          0                       # DTB read misses
system.cpu.dtb.read_acv                             0                       # DTB read access violations
system.cpu.dtb.read_accesses                       28                       # DTB read accesses
system.cpu.dtb.write_hits                           3                       # DTB write hits
system.cpu.dtb.write_misses                         0                       # DTB write misses
system.cpu.dtb.write_acv                            0                       # DTB write access violations
system.cpu.dtb.write_accesses                       3                       # DTB write accesses
system.cpu.dtb.data_hits                           31                       # DTB hits
system.cpu.dtb.data_misses                          0                       # DTB misses
system.cpu.dtb.data_acv                             0                       # DTB access violations
system.cpu.dtb.data_accesses                       31                       # DTB accesses
system.cpu.itb.fetch_hits                           7                       # ITB hits
system.cpu.itb.fetch_misses                         0                       # ITB misses
system.cpu.itb.fetch_acv                            0                       # ITB acv
system.cpu.itb.fetch_accesses                       7                       # ITB accesses
system.cpu.itb.read_hits                            0                       # DTB read hits
system.cpu.itb.read_misses                          0                       # DTB read misses
system.cpu.itb.read_acv                             0                       # DTB read access violations
system.cpu.itb.read_accesses                        0                       # DTB read accesses
system.cpu.itb.write_hits                           0                       # DTB write hits
system.cpu.itb.write_misses                         0                       # DTB write misses
system.cpu.itb.write_acv                            0                       # DTB write access violations
system.cpu.itb.write_accesses                       0                       # DTB write accesses
system.cpu.itb.data_hits                            0                       # DTB hits
system.cpu.itb.data_misses                          0                       # DTB misses
system.cpu.itb.data_acv                             0                       # DTB access violations
system.cpu.itb.data_accesses                        0                       # DTB accesses
system.cpu.workload.num_syscalls                    0                       # Number of system calls
system.cpu.pwrStateResidencyTicks::ON    2359378827765                       # Cumulative time (in ticks) in various power states
system.cpu.numCycles                             1461                       # number of cpu cycles simulated
system.cpu.numWorkItemsStarted                      0                       # number of work items this cpu started
[...]
system.switch_cpus_1.iq.int_inst_queue_writes    142172526                       # Number of integer instruction queue writes
system.switch_cpus_1.iq.int_inst_queue_wakeup_accesses    140178588                       # Number of integer instruction queue wakeup accesses
system.switch_cpus_1.iq.fp_inst_queue_reads    151659316                       # Number of floating instruction queue reads
system.switch_cpus_1.iq.fp_inst_queue_writes     62650665                       # Number of floating instruction queue writes
system.switch_cpus_1.iq.fp_inst_queue_wakeup_accesses     61348359                       # Number of floating instruction queue wakeup accesses
system.switch_cpus_1.iq.int_alu_accesses    154381369                       # Number of integer alu accesses
system.switch_cpus_1.iq.fp_alu_accesses      81665311                       # Number of floating point alu accesses
system.switch_cpus_1.iew.lsq.thread0.forwLoads      1468464                       # Number of loads that had data forwarded from stores
system.switch_cpus_1.iew.lsq.thread0.invAddrLoads            0                       # Number of loads ignored due to an invalid address
system.switch_cpus_1.iew.lsq.thread0.squashedLoads       800524                       # Number of loads squashed
system.switch_cpus_1.iew.lsq.thread0.ignoredResponses            0                       # Number of memory responses ignored because the instruction is squashed
system.switch_cpus_1.iew.lsq.thread0.memOrderViolation          366                       # Number of memory ordering violations
system.switch_cpus_1.iew.lsq.thread0.squashedStores       151514                       # Number of stores squashed
system.switch_cpus_1.iew.lsq.thread0.invAddrSwpfs            0                       # Number of software prefetches ignored due to an invalid address
system.switch_cpus_1.iew.lsq.thread0.blockedLoads            0                       # Number of blocked loads due to partial load-store forwarding
system.switch_cpus_1.iew.lsq.thread0.rescheduledLoads            0                       # Number of loads that were rescheduled
system.switch_cpus_1.iew.lsq.thread0.cacheBlocked     12515790                       # Number of times an access to memory failed due to the cache being blocked
system.switch_cpus_1.iew.iewIdleCycles              0                       # Number of cycles IEW is idle
system.switch_cpus_1.iew.iewSquashCycles        63512                       # Number of cycles IEW is squashing
system.switch_cpus_1.iew.iewBlockCycles      42540226                       # Number of cycles IEW is blocking
system.switch_cpus_1.iew.iewUnblockCycles     47826241                       # Number of cycles IEW is unblocking
system.switch_cpus_1.iew.iewDispatchedInsts    202479313                       # Number of instructions dispatched to IQ
system.switch_cpus_1.iew.iewDispSquashedInsts        63774                       # Number of squashed instructions skipped by dispatch
system.switch_cpus_1.iew.iewDispLoadInsts     68394923                       # Number of dispatched load instructions
system.switch_cpus_1.iew.iewDispStoreInsts     10463995                       # Number of dispatched store instructions
system.switch_cpus_1.iew.iewDispNonSpecInsts           86                       # Number of dispatched non-speculative instructions
system.switch_cpus_1.iew.iewIQFullEvents       252599                       # Number of times the IQ has become full, causing a stall
system.switch_cpus_1.iew.iewLSQFullEvents     47317337                       # Number of times the LSQ has become full, causing a stall
system.switch_cpus_1.iew.memOrderViolationEvents          366                       # Number of memory order violations
system.switch_cpus_1.iew.predictedTakenIncorrect        47824                       # Number of branches that were predicted taken incorrectly
system.switch_cpus_1.iew.predictedNotTakenIncorrect          429                       # Number of branches that were predicted not taken incorrectly
system.switch_cpus_1.iew.branchMispredicts        48253                       # Number of branch mispredicts detected at execute
system.switch_cpus_1.iew.iewExecutedInsts    213905991                       # Number of executed instructions
system.switch_cpus_1.iew.iewExecLoadInsts     80404907                       # Number of load instructions executed
system.switch_cpus_1.iew.iewExecSquashedInsts       111555                       # Number of squashed instructions skipped in execute
system.switch_cpus_1.iew.exec_swp                   0                       # number of swp insts executed
system.switch_cpus_1.iew.exec_nop               67857                       # number of nop insts executed
system.switch_cpus_1.iew.exec_refs           90759245                       # number of memory reference insts executed
system.switch_cpus_1.iew.exec_branches        5550068                       # Number of branches executed
system.switch_cpus_1.iew.exec_stores         10354338                       # Number of stores executed
system.switch_cpus_1.iew.exec_rate           0.580320                       # Inst execution rate
system.switch_cpus_1.iew.wb_sent            201661057                       # cumulative count of insts sent to commit
system.switch_cpus_1.iew.wb_count           201526947                       # cumulative count of insts written-back
system.switch_cpus_1.iew.wb_producers       139370215                       # num instructions producing a value
system.switch_cpus_1.iew.wb_consumers       152940682                       # num instructions consuming a value
system.switch_cpus_1.iew.wb_rate             0.546736                       # insts written-back per cycle
system.switch_cpus_1.iew.wb_fanout           0.911270                       # average fanout of values written-back
system.switch_cpus_1.commit.commitSquashedInsts      2354707                       # The number of squashed insts skipped by commit
system.switch_cpus_1.commit.commitNonSpecStalls          144                       # The number of times commit has been forced to stall to communicate backwards
system.switch_cpus_1.commit.branchMispredicts        47871                       # The number of times a branch was mispredicted
system.switch_cpus_1.commit.committed_per_cycle::samples    368257714                       # Number of insts commited each cycle
system.switch_cpus_1.commit.committed_per_cycle::mean     0.543257                       # Number of insts commited each cycle
system.switch_cpus_1.commit.committed_per_cycle::stdev     1.887519                       # Number of insts commited each cycle
system.switch_cpus_1.commit.committed_per_cycle::underflows            0      0.00%      0.00% # Number of insts commited each cycle
system.switch_cpus_1.commit.committed_per_cycle::0    332327016     90.24%     90.24% # Number of insts commited each cycle
system.switch_cpus_1.commit.committed_per_cycle::1      7563710      2.05%     92.30% # Number of insts commited each cycle
system.switch_cpus_1.commit.committed_per_cycle::2      1495276      0.41%     92.70% # Number of insts commited each cycle
system.switch_cpus_1.commit.committed_per_cycle::3      1581774      0.43%     93.13% # Number of insts commited each cycle
system.switch_cpus_1.commit.committed_per_cycle::4      2174720      0.59%     93.72% # Number of insts commited each cycle
system.switch_cpus_1.commit.committed_per_cycle::5      1503572      0.41%     94.13% # Number of insts commited each cycle
system.switch_cpus_1.commit.committed_per_cycle::6      1318341      0.36%     94.49% # Number of insts commited each cycle
system.switch_cpus_1.commit.committed_per_cycle::7      1714139      0.47%     94.95% # Number of insts commited each cycle
system.switch_cpus_1.commit.committed_per_cycle::8     18579166      5.05%    100.00% # Number of insts commited each cycle
system.switch_cpus_1.commit.committed_per_cycle::overflows            0      0.00%    100.00% # Number of insts commited each cycle
system.switch_cpus_1.commit.committed_per_cycle::min_value            0                       # Number of insts commited each cycle
system.switch_cpus_1.commit.committed_per_cycle::max_value            8                       # Number of insts commited each cycle
system.switch_cpus_1.commit.committed_per_cycle::total    368257714                       # Number of insts commited each cycle
system.switch_cpus_1.commit.committedInsts    200058671                       # Number of instructions committed
system.switch_cpus_1.commit.committedOps    200058671                       # Number of ops (including micro ops) committed
system.switch_cpus_1.commit.swp_count               0                       # Number of s/w prefetches committed
system.switch_cpus_1.commit.refs             77906848                       # Number of memory references committed
system.switch_cpus_1.commit.loads            67594371                       # Number of loads committed
system.switch_cpus_1.commit.membars                72                       # Number of memory barriers committed
system.switch_cpus_1.commit.branches          5447366                       # Number of branches committed
system.switch_cpus_1.commit.fp_insts         61032861                       # Number of committed floating point instructions.
system.switch_cpus_1.commit.int_insts       169602469                       # Number of committed integer instructions.
system.switch_cpus_1.commit.function_calls           74                       # Number of function calls committed.
system.switch_cpus_1.commit.op_class_0::No_OpClass        58667      0.03%      0.03% # Class of committed instruction
system.switch_cpus_1.commit.op_class_0::IntAlu     69024585     34.50%     34.53% # Class of committed instruction
system.switch_cpus_1.commit.op_class_0::IntMult     22692429     11.34%     45.87% # Class of committed instruction
system.switch_cpus_1.commit.op_class_0::IntDiv            0      0.00%     45.87% # Class of committed instruction
system.switch_cpus_1.commit.op_class_0::FloatAdd     15421069      7.71%     53.58% # Class of committed instruction
system.switch_cpus_1.commit.op_class_0::FloatCmp            0      0.00%     53.58% # Class of committed instruction
system.switch_cpus_1.commit.op_class_0::FloatCvt         3010      0.00%     53.58% # Class of committed instruction
system.switch_cpus_1.commit.op_class_0::FloatMult     13619855      6.81%     60.39% # Class of committed instruction
system.switch_cpus_1.commit.op_class_0::FloatMultAcc            0      0.00%     60.39% # Class of committed instruction
system.switch_cpus_1.commit.op_class_0::FloatDiv      1151536      0.58%     60.97% # Class of committed instruction
system.switch_cpus_1.commit.op_class_0::FloatMisc            0      0.00%     60.97% # Class of committed instruction
system.switch_cpus_1.commit.op_class_0::FloatSqrt       180600      0.09%     61.06% # Class of committed instruction
system.switch_cpus_1.commit.op_class_0::SimdAdd            0      0.00%     61.06% # Class of committed instruction
system.switch_cpus_1.commit.op_class_0::SimdAddAcc            0      0.00%     61.06% # Class of committed instruction
system.switch_cpus_1.commit.op_class_0::SimdAlu            0      0.00%     61.06% # Class of committed instruction
system.switch_cpus_1.commit.op_class_0::SimdCmp            0      0.00%     61.06% # Class of committed instruction
system.switch_cpus_1.commit.op_class_0::SimdCvt            0      0.00%     61.06% # Class of committed instruction
system.switch_cpus_1.commit.op_class_0::SimdMisc            0      0.00%     61.06% # Class of committed instruction
system.switch_cpus_1.commit.op_class_0::SimdMult            0      0.00%     61.06% # Class of committed instruction
system.switch_cpus_1.commit.op_class_0::SimdMultAcc            0      0.00%     61.06% # Class of committed instruction
system.switch_cpus_1.commit.op_class_0::SimdShift            0      0.00%     61.06% # Class of committed instruction
system.switch_cpus_1.commit.op_class_0::SimdShiftAcc            0      0.00%     61.06% # Class of committed instruction
system.switch_cpus_1.commit.op_class_0::SimdSqrt            0      0.00%     61.06% # Class of committed instruction
system.switch_cpus_1.commit.op_class_0::SimdFloatAdd            0      0.00%     61.06% # Class of committed instruction
system.switch_cpus_1.commit.op_class_0::SimdFloatAlu            0      0.00%     61.06% # Class of committed instruction
system.switch_cpus_1.commit.op_class_0::SimdFloatCmp            0      0.00%     61.06% # Class of committed instruction
system.switch_cpus_1.commit.op_class_0::SimdFloatCvt            0      0.00%     61.06% # Class of committed instruction
system.switch_cpus_1.commit.op_class_0::SimdFloatDiv            0      0.00%     61.06% # Class of committed instruction
system.switch_cpus_1.commit.op_class_0::SimdFloatMisc            0      0.00%     61.06% # Class of committed instruction
system.switch_cpus_1.commit.op_class_0::SimdFloatMult            0      0.00%     61.06% # Class of committed instruction
system.switch_cpus_1.commit.op_class_0::SimdFloatMultAcc            0      0.00%     61.06% # Class of committed instruction
system.switch_cpus_1.commit.op_class_0::SimdFloatSqrt            0      0.00%     61.06% # Class of committed instruction
system.switch_cpus_1.commit.op_class_0::MemRead     44149715     22.07%     83.13% # Class of committed instruction
system.switch_cpus_1.commit.op_class_0::MemWrite      3100414      1.55%     84.68% # Class of committed instruction
system.switch_cpus_1.commit.op_class_0::FloatMemRead     23444728     11.72%     96.40% # Class of committed instruction
system.switch_cpus_1.commit.op_class_0::FloatMemWrite      7212063      3.60%    100.00% # Class of committed instruction
system.switch_cpus_1.commit.op_class_0::IprAccess            0      0.00%    100.00% # Class of committed instruction
system.switch_cpus_1.commit.op_class_0::InstPrefetch            0      0.00%    100.00% # Class of committed instruction
system.switch_cpus_1.commit.op_class_0::total    200058671                       # Class of committed instruction
system.switch_cpus_1.commit.bw_lim_events     18579166                       # number cycles where commit BW limit reached
system.switch_cpus_1.rob.rob_reads          551892753                       # The number of ROB reads
system.switch_cpus_1.rob.rob_writes         405145615                       # The number of ROB writes
system.switch_cpus_1.timesIdled                   111                       # Number of times that the entire CPU went into an idle state and unscheduled itself
system.switch_cpus_1.idleCycles                 23582                       # Total number of cycles that the CPU has spent unscheduled due to idling
system.switch_cpus_1.committedInsts         200000004                       # Number of Instructions Simulated
system.switch_cpus_1.committedOps           200000004                       # Number of Ops (including micro ops) Simulated
system.switch_cpus_1.cpi                     1.843000                       # CPI: Cycles Per Instruction
system.switch_cpus_1.cpi_total               1.843000                       # CPI: Total CPI of All Threads
system.switch_cpus_1.ipc                     0.542594                       # IPC: Instructions Per Cycle
system.switch_cpus_1.ipc_total               0.542594                       # IPC: Total IPC of All Threads
system.switch_cpus_1.int_regfile_reads      260440866                       # number of integer regfile reads
system.switch_cpus_1.int_regfile_writes     131549953                       # number of integer regfile writes
system.switch_cpus_1.fp_regfile_reads        68053072                       # number of floating regfile reads
system.switch_cpus_1.fp_regfile_writes       54126498                       # number of floating regfile writes
system.switch_cpus_1.misc_regfile_reads           162                       # number of misc regfile reads
system.switch_cpus_1.misc_regfile_writes          144                       # number of misc regfile writes
system.tol3bus.snoop_filter.tot_requests     21501562                       # Total number of requests made to the snoop filter.
system.tol3bus.snoop_filter.hit_single_requests     10748474                       # Number of requests hitting in the snoop filter with a single holder of the requested data.
system.tol3bus.snoop_filter.hit_multi_requests            0                       # Number of requests hitting in the snoop filter with multiple (>1) holders of the requested data.
system.tol3bus.snoop_filter.tot_snoops           1936                       # Total number of snoops made to the snoop filter.
system.tol3bus.snoop_filter.hit_single_snoops         1936                       # Number of snoops hitting in the snoop filter with a single holder of the requested data.
system.tol3bus.snoop_filter.hit_multi_snoops            0                       # Number of snoops hitting in the snoop filter with multiple (>1) holders of the requested data.
system.tol3bus.pwrStateResidencyTicks::UNDEFINED 75629532628467                       # Cumulative time (in ticks) in various power states
system.tol3bus.trans_dist::ReadResp           8306218                       # Transaction distribution
system.tol3bus.trans_dist::WritebackDirty      5966529                       # Transaction distribution
system.tol3bus.trans_dist::CleanEvict        13095040                       # Transaction distribution
system.tol3bus.trans_dist::ReadExReq          2446870                       # Transaction distribution
system.tol3bus.trans_dist::ReadExResp         2446868                       # Transaction distribution
system.tol3bus.trans_dist::ReadSharedReq      8306218                       # Transaction distribution
system.tol3bus.pkt_count_system.cpu.l2.mem_side::system.l3.cpu_side     32254648                       # Packet count per connected master and slave (bytes)
system.tol3bus.pkt_size_system.cpu.l2.mem_side::system.l3.cpu_side    901507520                       # Cumulative packet size per connected master and slave (bytes)
system.tol3bus.snoops                         8313095                       # Total snoops (count)
system.tol3bus.snoopTraffic                 168547840                       # Total snoop traffic (bytes)
system.tol3bus.snoop_fanout::samples         19066183                       # Request fanout histogram
system.tol3bus.snoop_fanout::mean            0.000102                       # Request fanout histogram
system.tol3bus.snoop_fanout::stdev           0.010076                       # Request fanout histogram
system.tol3bus.snoop_fanout::underflows             0      0.00%      0.00% # Request fanout histogram
system.tol3bus.snoop_fanout::0               19064247     99.99%     99.99% # Request fanout histogram
system.tol3bus.snoop_fanout::1                   1936      0.01%    100.00% # Request fanout histogram
system.tol3bus.snoop_fanout::overflows              0      0.00%    100.00% # Request fanout histogram
system.tol3bus.snoop_fanout::min_value              0                       # Request fanout histogram
system.tol3bus.snoop_fanout::max_value              1                       # Request fanout histogram
system.tol3bus.snoop_fanout::total           19066183                       # Request fanout histogram
system.tol3bus.reqLayer0.occupancy         8269898823                       # Layer occupancy (ticks)
system.tol3bus.reqLayer0.utilization              0.4                       # Layer utilization (%)
system.tol3bus.respLayer0.occupancy        7161555276                       # Layer occupancy (ticks)
system.tol3bus.respLayer0.utilization             0.3                       # Layer utilization (%)

---------- End Simulation Statistics   ----------
