
---------- Begin Simulation Statistics ----------
sim_seconds                                  2.674930                       # Number of seconds simulated
sim_ticks                                2674930489902                       # Number of ticks simulated
final_tick                               146151918806976                       # Number of ticks from beginning of simulation (restored from checkpoints and never reset)
sim_freq                                 1000000000000                       # Frequency of simulated ticks
host_inst_rate                                 256503                       # Simulator instruction rate (inst/s)
host_op_rate                                   256503                       # Simulator op (including micro ops) rate (op/s)
host_tick_rate                              571773880                       # Simulator tick rate (ticks/s)
host_mem_usage                                2540976                       # Number of bytes of host memory used
host_seconds                                  4678.30                       # Real time elapsed on the host
sim_insts                                  1200000006                       # Number of instructions simulated
sim_ops                                    1200000006                       # Number of ops (including micro ops) simulated
system.voltage_domain.voltage                       1                       # Voltage in Volts
system.clk_domain.clock                          1000                       # Clock period in ticks
system.mem_ctrls0.pwrStateResidencyTicks::UNDEFINED 146151918806976                       # Cumulative time (in ticks) in various power states
system.mem_ctrls0.bytes_read::cpu.inst            128                       # Number of bytes read from this memory
system.mem_ctrls0.bytes_read::cpu.data            256                       # Number of bytes read from this memory
system.mem_ctrls0.bytes_read::switch_cpus.inst        20864                       # Number of bytes read from this memory
system.mem_ctrls0.bytes_read::switch_cpus.data    482498240                       # Number of bytes read from this memory
system.mem_ctrls0.bytes_read::switch_cpus_1.inst         6720                       # Number of bytes read from this memory
system.mem_ctrls0.bytes_read::switch_cpus_1.data     85391104                       # Number of bytes read from this memory
system.mem_ctrls0.bytes_read::total         567917312                       # Number of bytes read from this memory
system.mem_ctrls0.bytes_inst_read::cpu.inst          128                       # Number of instructions bytes read from this memory
system.mem_ctrls0.bytes_inst_read::switch_cpus.inst        20864                       # Number of instructions bytes read from this memory
system.mem_ctrls0.bytes_inst_read::switch_cpus_1.inst         6720                       # Number of instructions bytes read from this memory
system.mem_ctrls0.bytes_inst_read::total        27712                       # Number of instructions bytes read from this memory
system.mem_ctrls0.bytes_written::writebacks    280539776                       # Number of bytes written to this memory
system.mem_ctrls0.bytes_written::total      280539776                       # Number of bytes written to this memory
system.mem_ctrls0.num_reads::cpu.inst               2                       # Number of read requests responded to by this memory
system.mem_ctrls0.num_reads::cpu.data               4                       # Number of read requests responded to by this memory
system.mem_ctrls0.num_reads::switch_cpus.inst          326                       # Number of read requests responded to by this memory
system.mem_ctrls0.num_reads::switch_cpus.data      7539035                       # Number of read requests responded to by this memory
system.mem_ctrls0.num_reads::switch_cpus_1.inst          105                       # Number of read requests responded to by this memory
system.mem_ctrls0.num_reads::switch_cpus_1.data      1334236                       # Number of read requests responded to by this memory
system.mem_ctrls0.num_reads::total            8873708                       # Number of read requests responded to by this memory
system.mem_ctrls0.num_writes::writebacks      4383434                       # Number of write requests responded to by this memory
system.mem_ctrls0.num_writes::total           4383434                       # Number of write requests responded to by this memory
system.mem_ctrls0.bw_read::cpu.inst                48                       # Total read bandwidth from this memory (bytes/s)
system.mem_ctrls0.bw_read::cpu.data                96                       # Total read bandwidth from this memory (bytes/s)
system.mem_ctrls0.bw_read::switch_cpus.inst         7800                       # Total read bandwidth from this memory (bytes/s)
system.mem_ctrls0.bw_read::switch_cpus.data    180377861                       # Total read bandwidth from this memory (bytes/s)
system.mem_ctrls0.bw_read::switch_cpus_1.inst         2512                       # Total read bandwidth from this memory (bytes/s)
system.mem_ctrls0.bw_read::switch_cpus_1.data     31922738                       # Total read bandwidth from this memory (bytes/s)
system.mem_ctrls0.bw_read::total            212311054                       # Total read bandwidth from this memory (bytes/s)
system.mem_ctrls0.bw_inst_read::cpu.inst           48                       # Instruction read bandwidth from this memory (bytes/s)
system.mem_ctrls0.bw_inst_read::switch_cpus.inst         7800                       # Instruction read bandwidth from this memory (bytes/s)
system.mem_ctrls0.bw_inst_read::switch_cpus_1.inst         2512                       # Instruction read bandwidth from this memory (bytes/s)
system.mem_ctrls0.bw_inst_read::total           10360                       # Instruction read bandwidth from this memory (bytes/s)
system.mem_ctrls0.bw_write::writebacks      104877408                       # Write bandwidth from this memory (bytes/s)
system.mem_ctrls0.bw_write::total           104877408                       # Write bandwidth from this memory (bytes/s)
system.mem_ctrls0.bw_total::writebacks      104877408                       # Total bandwidth to/from this memory (bytes/s)
system.mem_ctrls0.bw_total::cpu.inst               48                       # Total bandwidth to/from this memory (bytes/s)
system.mem_ctrls0.bw_total::cpu.data               96                       # Total bandwidth to/from this memory (bytes/s)
system.mem_ctrls0.bw_total::switch_cpus.inst         7800                       # Total bandwidth to/from this memory (bytes/s)
system.mem_ctrls0.bw_total::switch_cpus.data    180377861                       # Total bandwidth to/from this memory (bytes/s)
system.mem_ctrls0.bw_total::switch_cpus_1.inst         2512                       # Total bandwidth to/from this memory (bytes/s)
system.mem_ctrls0.bw_total::switch_cpus_1.data     31922738                       # Total bandwidth to/from this memory (bytes/s)
system.mem_ctrls0.bw_total::total           317188462                       # Total bandwidth to/from this memory (bytes/s)
system.mem_ctrls0.readReqs                    8873708                       # Number of read requests accepted
system.mem_ctrls0.writeReqs                   4383434                       # Number of write requests accepted
system.mem_ctrls0.readBursts                  8873708                       # Number of DRAM read bursts, including those serviced by the write queue
system.mem_ctrls0.writeBursts                 4383434                       # Number of DRAM write bursts, including those merged in the write queue
system.mem_ctrls0.bytesReadDRAM             567915712                       # Total number of bytes read from DRAM
system.mem_ctrls0.bytesReadWrQ                   1600                       # Total number of bytes read from write queue
system.mem_ctrls0.bytesWritten              280538240                       # Total number of bytes written to DRAM
system.mem_ctrls0.bytesReadSys              567917312                       # Total read bytes from the system interface side
system.mem_ctrls0.bytesWrittenSys           280539776                       # Total written bytes from the system interface side
system.mem_ctrls0.servicedByWrQ                    25                       # Number of DRAM read bursts serviced by the write queue
system.mem_ctrls0.mergedWrBursts                    0                       # Number of DRAM write bursts merged with an existing one
system.mem_ctrls0.neitherReadNorWriteReqs            0                       # Number of requests that are neither read nor write
system.mem_ctrls0.perBankRdBursts::0           554453                       # Per bank write bursts
system.mem_ctrls0.perBankRdBursts::1           553006                       # Per bank write bursts
system.mem_ctrls0.perBankRdBursts::2           554571                       # Per bank write bursts
system.mem_ctrls0.perBankRdBursts::3           555900                       # Per bank write bursts
system.mem_ctrls0.perBankRdBursts::4           555746                       # Per bank write bursts
system.mem_ctrls0.perBankRdBursts::5           554263                       # Per bank write bursts
system.mem_ctrls0.perBankRdBursts::6           554074                       # Per bank write bursts
system.mem_ctrls0.perBankRdBursts::7           555412                       # Per bank write bursts
system.mem_ctrls0.perBankRdBursts::8           556044                       # Per bank write bursts
system.mem_ctrls0.perBankRdBursts::9           552795                       # Per bank write bursts
system.mem_ctrls0.perBankRdBursts::10          551893                       # Per bank write bursts
system.mem_ctrls0.perBankRdBursts::11          554660                       # Per bank write bursts
system.mem_ctrls0.perBankRdBursts::12          555275                       # Per bank write bursts
system.mem_ctrls0.perBankRdBursts::13          555745                       # Per bank write bursts
system.mem_ctrls0.perBankRdBursts::14          555402                       # Per bank write bursts
system.mem_ctrls0.perBankRdBursts::15          554444                       # Per bank write bursts
system.mem_ctrls0.perBankWrBursts::0           275345                       # Per bank write bursts
system.mem_ctrls0.perBankWrBursts::1           273888                       # Per bank write bursts
system.mem_ctrls0.perBankWrBursts::2           273473                       # Per bank write bursts
system.mem_ctrls0.perBankWrBursts::3           274172                       # Per bank write bursts
system.mem_ctrls0.perBankWrBursts::4           274278                       # Per bank write bursts
system.mem_ctrls0.perBankWrBursts::5           273998                       # Per bank write bursts
system.mem_ctrls0.perBankWrBursts::6           273898                       # Per bank write bursts
system.mem_ctrls0.perBankWrBursts::7           273442                       # Per bank write bursts
system.mem_ctrls0.perBankWrBursts::8           273178                       # Per bank write bursts
system.mem_ctrls0.perBankWrBursts::9           272893                       # Per bank write bursts
system.mem_ctrls0.perBankWrBursts::10          273812                       # Per bank write bursts
system.mem_ctrls0.perBankWrBursts::11          275425                       # Per bank write bursts
system.mem_ctrls0.perBankWrBursts::12          274254                       # Per bank write bursts
system.mem_ctrls0.perBankWrBursts::13          273059                       # Per bank write bursts
system.mem_ctrls0.perBankWrBursts::14          273398                       # Per bank write bursts
system.mem_ctrls0.perBankWrBursts::15          274897                       # Per bank write bursts
system.mem_ctrls0.numRdRetry                        0                       # Number of times read queue was full causing retry
system.mem_ctrls0.numWrRetry                        0                       # Number of times write queue was full causing retry
system.mem_ctrls0.totGap                 2674930462941                       # Total gap between requests
system.mem_ctrls0.readPktSize::0                    0                       # Read request sizes (log2)
system.mem_ctrls0.readPktSize::1                    0                       # Read request sizes (log2)
system.mem_ctrls0.readPktSize::2                    0                       # Read request sizes (log2)
system.mem_ctrls0.readPktSize::3                    0                       # Read request sizes (log2)
system.mem_ctrls0.readPktSize::4                    0                       # Read request sizes (log2)
system.mem_ctrls0.readPktSize::5                    0                       # Read request sizes (log2)
system.mem_ctrls0.readPktSize::6              8873708                       # Read request sizes (log2)
system.mem_ctrls0.writePktSize::0                   0                       # Write request sizes (log2)
system.mem_ctrls0.writePktSize::1                   0                       # Write request sizes (log2)
system.mem_ctrls0.writePktSize::2                   0                       # Write request sizes (log2)
system.mem_ctrls0.writePktSize::3                   0                       # Write request sizes (log2)
system.mem_ctrls0.writePktSize::4                   0                       # Write request sizes (log2)
system.mem_ctrls0.writePktSize::5                   0                       # Write request sizes (log2)
system.mem_ctrls0.writePktSize::6             4383434                       # Write request sizes (log2)
system.mem_ctrls0.rdQLenPdf::0                8401896                       # What read queue length does an incoming req see
system.mem_ctrls0.rdQLenPdf::1                 339752                       # What read queue length does an incoming req see
system.mem_ctrls0.rdQLenPdf::2                 112807                       # What read queue length does an incoming req see
system.mem_ctrls0.rdQLenPdf::3                  19226                       # What read queue length does an incoming req see
system.mem_ctrls0.rdQLenPdf::4                      2                       # What read queue length does an incoming req see
system.mem_ctrls0.rdQLenPdf::5                      0                       # What read queue length does an incoming req see
system.mem_ctrls0.rdQLenPdf::6                      0                       # What read queue length does an incoming req see
system.mem_ctrls0.rdQLenPdf::7                      0                       # What read queue length does an incoming req see
system.mem_ctrls0.rdQLenPdf::8                      0                       # What read queue length does an incoming req see
system.mem_ctrls0.rdQLenPdf::9                      0                       # What read queue length does an incoming req see
system.mem_ctrls0.rdQLenPdf::10                     0                       # What read queue length does an incoming req see
system.mem_ctrls0.rdQLenPdf::11                     0                       # What read queue length does an incoming req see
system.mem_ctrls0.rdQLenPdf::12                     0                       # What read queue length does an incoming req see
system.mem_ctrls0.rdQLenPdf::13                     0                       # What read queue length does an incoming req see
system.mem_ctrls0.rdQLenPdf::14                     0                       # What read queue length does an incoming req see
system.mem_ctrls0.rdQLenPdf::15                     0                       # What read queue length does an incoming req see
system.mem_ctrls0.rdQLenPdf::16                     0                       # What read queue length does an incoming req see
system.mem_ctrls0.rdQLenPdf::17                     0                       # What read queue length does an incoming req see
system.mem_ctrls0.rdQLenPdf::18                     0                       # What read queue length does an incoming req see
system.mem_ctrls0.rdQLenPdf::19                     0                       # What read queue length does an incoming req see
system.mem_ctrls0.rdQLenPdf::20                     0                       # What read queue length does an incoming req see
system.mem_ctrls0.rdQLenPdf::21                     0                       # What read queue length does an incoming req see
system.mem_ctrls0.rdQLenPdf::22                     0                       # What read queue length does an incoming req see
system.mem_ctrls0.rdQLenPdf::23                     0                       # What read queue length does an incoming req see
system.mem_ctrls0.rdQLenPdf::24                     0                       # What read queue length does an incoming req see
system.mem_ctrls0.rdQLenPdf::25                     0                       # What read queue length does an incoming req see
system.mem_ctrls0.rdQLenPdf::26                     0                       # What read queue length does an incoming req see
system.mem_ctrls0.rdQLenPdf::27                     0                       # What read queue length does an incoming req see
system.mem_ctrls0.rdQLenPdf::28                     0                       # What read queue length does an incoming req see
system.mem_ctrls0.rdQLenPdf::29                     0                       # What read queue length does an incoming req see
system.mem_ctrls0.rdQLenPdf::30                     0                       # What read queue length does an incoming req see
system.mem_ctrls0.rdQLenPdf::31                     0                       # What read queue length does an incoming req see
system.mem_ctrls0.wrQLenPdf::0                      2                       # What write queue length does an incoming req see
system.mem_ctrls0.wrQLenPdf::1                      2                       # What write queue length does an incoming req see
system.mem_ctrls0.wrQLenPdf::2                      2                       # What write queue length does an incoming req see
system.mem_ctrls0.wrQLenPdf::3                      2                       # What write queue length does an incoming req see
system.mem_ctrls0.wrQLenPdf::4                      2                       # What write queue length does an incoming req see
system.mem_ctrls0.wrQLenPdf::5                      2                       # What write queue length does an incoming req see
system.mem_ctrls0.wrQLenPdf::6                      2                       # What write queue length does an incoming req see
system.mem_ctrls0.wrQLenPdf::7                      2                       # What write queue length does an incoming req see
system.mem_ctrls0.wrQLenPdf::8                      2                       # What write queue length does an incoming req see
system.mem_ctrls0.wrQLenPdf::9                      2                       # What write queue length does an incoming req see
system.mem_ctrls0.wrQLenPdf::10                     2                       # What write queue length does an incoming req see
system.mem_ctrls0.wrQLenPdf::11                     2                       # What write queue length does an incoming req see
system.mem_ctrls0.wrQLenPdf::12                     2                       # What write queue length does an incoming req see
system.mem_ctrls0.wrQLenPdf::13                     2                       # What write queue length does an incoming req see
system.mem_ctrls0.wrQLenPdf::14                     2                       # What write queue length does an incoming req see
system.mem_ctrls0.wrQLenPdf::15                137288                       # What write queue length does an incoming req see
system.mem_ctrls0.wrQLenPdf::16                143508                       # What write queue length does an incoming req see
system.mem_ctrls0.wrQLenPdf::17                245948                       # What write queue length does an incoming req see
system.mem_ctrls0.wrQLenPdf::18                255441                       # What write queue length does an incoming req see
system.mem_ctrls0.wrQLenPdf::19                257022                       # What write queue length does an incoming req see
system.mem_ctrls0.wrQLenPdf::20                257095                       # What write queue length does an incoming req see
system.mem_ctrls0.wrQLenPdf::21                257048                       # What write queue length does an incoming req see
system.mem_ctrls0.wrQLenPdf::22                257072                       # What write queue length does an incoming req see
system.mem_ctrls0.wrQLenPdf::23                257134                       # What write queue length does an incoming req see
system.mem_ctrls0.wrQLenPdf::24                257148                       # What write queue length does an incoming req see
system.mem_ctrls0.wrQLenPdf::25                256935                       # What write queue length does an incoming req see
system.mem_ctrls0.wrQLenPdf::26                256961                       # What write queue length does an incoming req see
system.mem_ctrls0.wrQLenPdf::27                256934                       # What write queue length does an incoming req see
system.mem_ctrls0.wrQLenPdf::28                257718                       # What write queue length does an incoming req see
system.mem_ctrls0.wrQLenPdf::29                258193                       # What write queue length does an incoming req see
system.mem_ctrls0.wrQLenPdf::30                259479                       # What write queue length does an incoming req see
system.mem_ctrls0.wrQLenPdf::31                256216                       # What write queue length does an incoming req see
system.mem_ctrls0.wrQLenPdf::32                255879                       # What write queue length does an incoming req see
system.mem_ctrls0.wrQLenPdf::33                   304                       # What write queue length does an incoming req see
system.mem_ctrls0.wrQLenPdf::34                    56                       # What write queue length does an incoming req see
system.mem_ctrls0.wrQLenPdf::35                    16                       # What write queue length does an incoming req see
system.mem_ctrls0.wrQLenPdf::36                     6                       # What write queue length does an incoming req see
system.mem_ctrls0.wrQLenPdf::37                     3                       # What write queue length does an incoming req see
system.mem_ctrls0.wrQLenPdf::38                     0                       # What write queue length does an incoming req see
system.mem_ctrls0.wrQLenPdf::39                     0                       # What write queue length does an incoming req see
system.mem_ctrls0.wrQLenPdf::40                     0                       # What write queue length does an incoming req see
system.mem_ctrls0.wrQLenPdf::41                     0                       # What write queue length does an incoming req see
system.mem_ctrls0.wrQLenPdf::42                     0                       # What write queue length does an incoming req see
system.mem_ctrls0.wrQLenPdf::43                     0                       # What write queue length does an incoming req see
system.mem_ctrls0.wrQLenPdf::44                     0                       # What write queue length does an incoming req see
system.mem_ctrls0.wrQLenPdf::45                     0                       # What write queue length does an incoming req see
system.mem_ctrls0.wrQLenPdf::46                     0                       # What write queue length does an incoming req see
system.mem_ctrls0.wrQLenPdf::47                     0                       # What write queue length does an incoming req see
system.mem_ctrls0.wrQLenPdf::48                     0                       # What write queue length does an incoming req see
system.mem_ctrls0.wrQLenPdf::49                     0                       # What write queue length does an incoming req see
system.mem_ctrls0.wrQLenPdf::50                     0                       # What write queue length does an incoming req see
system.mem_ctrls0.wrQLenPdf::51                     0                       # What write queue length does an incoming req see
system.mem_ctrls0.wrQLenPdf::52                     0                       # What write queue length does an incoming req see
system.mem_ctrls0.wrQLenPdf::53                     0                       # What write queue length does an incoming req see
system.mem_ctrls0.wrQLenPdf::54                     0                       # What write queue length does an incoming req see
system.mem_ctrls0.wrQLenPdf::55                     0                       # What write queue length does an incoming req see
system.mem_ctrls0.wrQLenPdf::56                     0                       # What write queue length does an incoming req see
system.mem_ctrls0.wrQLenPdf::57                     0                       # What write queue length does an incoming req see
system.mem_ctrls0.wrQLenPdf::58                     0                       # What write queue length does an incoming req see
system.mem_ctrls0.wrQLenPdf::59                     0                       # What write queue length does an incoming req see
system.mem_ctrls0.wrQLenPdf::60                     0                       # What write queue length does an incoming req see
system.mem_ctrls0.wrQLenPdf::61                     0                       # What write queue length does an incoming req see
system.mem_ctrls0.wrQLenPdf::62                     0                       # What write queue length does an incoming req see
system.mem_ctrls0.wrQLenPdf::63                     0                       # What write queue length does an incoming req see
system.mem_ctrls0.bytesPerActivate::samples      8789612                       # Bytes accessed per row activation
system.mem_ctrls0.bytesPerActivate::mean    96.529083                       # Bytes accessed per row activation
system.mem_ctrls0.bytesPerActivate::gmean    84.566517                       # Bytes accessed per row activation
system.mem_ctrls0.bytesPerActivate::stdev    63.895214                       # Bytes accessed per row activation
system.mem_ctrls0.bytesPerActivate::0-127      6151984     69.99%     69.99% # Bytes accessed per row activation
system.mem_ctrls0.bytesPerActivate::128-255      2152712     24.49%     94.48% # Bytes accessed per row activation
system.mem_ctrls0.bytesPerActivate::256-383       418544      4.76%     99.24% # Bytes accessed per row activation
system.mem_ctrls0.bytesPerActivate::384-511        46098      0.52%     99.77% # Bytes accessed per row activation
system.mem_ctrls0.bytesPerActivate::512-639        12907      0.15%     99.92% # Bytes accessed per row activation
system.mem_ctrls0.bytesPerActivate::640-767         4202      0.05%     99.96% # Bytes accessed per row activation
system.mem_ctrls0.bytesPerActivate::768-895         1465      0.02%     99.98% # Bytes accessed per row activation
system.mem_ctrls0.bytesPerActivate::896-1023          584      0.01%     99.99% # Bytes accessed per row activation
system.mem_ctrls0.bytesPerActivate::1024-1151         1116      0.01%    100.00% # Bytes accessed per row activation
system.mem_ctrls0.bytesPerActivate::total      8789612                       # Bytes accessed per row activation
system.mem_ctrls0.rdPerTurnAround::samples       255617                       # Reads before turning the bus around for writes
system.mem_ctrls0.rdPerTurnAround::mean     34.714722                       # Reads before turning the bus around for writes
system.mem_ctrls0.rdPerTurnAround::stdev    56.110853                       # Reads before turning the bus around for writes
system.mem_ctrls0.rdPerTurnAround::0-1023       255615    100.00%    100.00% # Reads before turning the bus around for writes
system.mem_ctrls0.rdPerTurnAround::1024-2047            1      0.00%    100.00% # Reads before turning the bus around for writes
system.mem_ctrls0.rdPerTurnAround::27648-28671            1      0.00%    100.00% # Reads before turning the bus around for writes
system.mem_ctrls0.rdPerTurnAround::total       255617                       # Reads before turning the bus around for writes
system.mem_ctrls0.wrPerTurnAround::samples       255617                       # Writes before turning the bus around for reads
system.mem_ctrls0.wrPerTurnAround::mean     17.148351                       # Writes before turning the bus around for reads
system.mem_ctrls0.wrPerTurnAround::gmean    17.115251                       # Writes before turning the bus around for reads
system.mem_ctrls0.wrPerTurnAround::stdev     1.065803                       # Writes before turning the bus around for reads
system.mem_ctrls0.wrPerTurnAround::16          113488     44.40%     44.40% # Writes before turning the bus around for reads
system.mem_ctrls0.wrPerTurnAround::17            3961      1.55%     45.95% # Writes before turning the bus around for reads
system.mem_ctrls0.wrPerTurnAround::18          126562     49.51%     95.46% # Writes before turning the bus around for reads
system.mem_ctrls0.wrPerTurnAround::19           10349      4.05%     99.51% # Writes before turning the bus around for reads
system.mem_ctrls0.wrPerTurnAround::20            1032      0.40%     99.91% # Writes before turning the bus around for reads
system.mem_ctrls0.wrPerTurnAround::21             147      0.06%     99.97% # Writes before turning the bus around for reads
system.mem_ctrls0.wrPerTurnAround::22              40      0.02%     99.99% # Writes before turning the bus around for reads
system.mem_ctrls0.wrPerTurnAround::23              18      0.01%     99.99% # Writes before turning the bus around for reads
system.mem_ctrls0.wrPerTurnAround::24              11      0.00%    100.00% # Writes before turning the bus around for reads
system.mem_ctrls0.wrPerTurnAround::25               3      0.00%    100.00% # Writes before turning the bus around for reads
system.mem_ctrls0.wrPerTurnAround::26               4      0.00%    100.00% # Writes before turning the bus around for reads
system.mem_ctrls0.wrPerTurnAround::27               2      0.00%    100.00% # Writes before turning the bus around for reads
system.mem_ctrls0.wrPerTurnAround::total       255617                       # Writes before turning the bus around for reads
system.mem_ctrls0.totQLat                236148379915                       # Total ticks spent queuing
system.mem_ctrls0.totMemAccLat           402529936165                       # Total ticks spent from burst creation until serviced by the DRAM
system.mem_ctrls0.totBusLat               44368415000                       # Total ticks spent in databus transfers
system.mem_ctrls0.avgQLat                    26612.22                       # Average queueing delay per DRAM burst
system.mem_ctrls0.avgBusLat                   5000.00                       # Average bus latency per DRAM burst
system.mem_ctrls0.avgMemAccLat               45362.22                       # Average memory access latency per DRAM burst
system.mem_ctrls0.avgRdBW                      212.31                       # Average DRAM read bandwidth in MiByte/s
system.mem_ctrls0.avgWrBW                      104.88                       # Average achieved write bandwidth in MiByte/s
system.mem_ctrls0.avgRdBWSys                   212.31                       # Average system read bandwidth in MiByte/s
system.mem_ctrls0.avgWrBWSys                   104.88                       # Average system write bandwidth in MiByte/s
system.mem_ctrls0.peakBW                     12800.00                       # Theoretical peak bandwidth in MiByte/s
system.mem_ctrls0.busUtil                        2.48                       # Data bus utilization in percentage
system.mem_ctrls0.busUtilRead                    1.66                       # Data bus utilization in percentage for reads
system.mem_ctrls0.busUtilWrite                   0.82                       # Data bus utilization in percentage for writes
system.mem_ctrls0.avgRdQLen                      1.03                       # Average read queue length when enqueuing
system.mem_ctrls0.avgWrQLen                     24.81                       # Average write queue length when enqueuing
system.mem_ctrls0.readRowHits                 3209908                       # Number of row buffer hits during reads
system.mem_ctrls0.writeRowHits                1257567                       # Number of row buffer hits during writes
system.mem_ctrls0.readRowHitRate                36.17                       # Row buffer hit rate for reads
system.mem_ctrls0.writeRowHitRate               28.69                       # Row buffer hit rate for writes
system.mem_ctrls0.avgGap                    201772.79                       # Average gap between requests
system.mem_ctrls0.pageHitRate                   33.70                       # Row buffer hit rate, read and write combined
system.mem_ctrls0_0.actEnergy             31366576920                       # Energy for activate commands per rank (pJ)
system.mem_ctrls0_0.preEnergy             16671715830                       # Energy for precharge commands per rank (pJ)
system.mem_ctrls0_0.readEnergy            31683214500                       # Energy for read commands per rank (pJ)
system.mem_ctrls0_0.writeEnergy           11444818680                       # Energy for write commands per rank (pJ)
system.mem_ctrls0_0.refreshEnergy        210469945920.000061                       # Energy for refresh commands per rank (pJ)
system.mem_ctrls0_0.actBackEnergy        194890142670                       # Energy for active background per rank (pJ)
system.mem_ctrls0_0.preBackEnergy          5506559040                       # Energy for precharge background per rank (pJ)
system.mem_ctrls0_0.actPowerDownEnergy   909032867280                       # Energy for active power-down per rank (pJ)
system.mem_ctrls0_0.prePowerDownEnergy    75374472000                       # Energy for precharge power-down per rank (pJ)
system.mem_ctrls0_0.selfRefreshEnergy     13069433850                       # Energy for self refresh per rank (pJ)
system.mem_ctrls0_0.totalEnergy          1499525880420                       # Total energy per rank (pJ)
system.mem_ctrls0_0.averagePower           560.584986                       # Core power per rank (mW)
system.mem_ctrls0_0.totalIdleTime        2233154818213                       # Total Idle time Per DRAM Rank
system.mem_ctrls0_0.memoryStateTime::IDLE   3273650041                       # Time in different power states
system.mem_ctrls0_0.memoryStateTime::REF  89061868000                       # Time in different power states
system.mem_ctrls0_0.memoryStateTime::SREF  43383134065                       # Time in different power states
system.mem_ctrls0_0.memoryStateTime::PRE_PDN 196287468194                       # Time in different power states
system.mem_ctrls0_0.memoryStateTime::ACT 349440099477                       # Time in different power states
system.mem_ctrls0_0.memoryStateTime::ACT_PDN 1993484270125                       # Time in different power states
system.mem_ctrls0_1.actEnergy             31391295600                       # Energy for activate commands per rank (pJ)
system.mem_ctrls0_1.preEnergy             16684861710                       # Energy for precharge commands per rank (pJ)
system.mem_ctrls0_1.readEnergy            31674882120                       # Energy for read commands per rank (pJ)
system.mem_ctrls0_1.writeEnergy           11436581520                       # Energy for write commands per rank (pJ)
system.mem_ctrls0_1.refreshEnergy        210125132880.000061                       # Energy for refresh commands per rank (pJ)
system.mem_ctrls0_1.actBackEnergy        194046832800                       # Energy for active background per rank (pJ)
system.mem_ctrls0_1.preBackEnergy          5462439840                       # Energy for precharge background per rank (pJ)
system.mem_ctrls0_1.actPowerDownEnergy   909571862130                       # Energy for active power-down per rank (pJ)
system.mem_ctrls0_1.prePowerDownEnergy    75122736480                       # Energy for precharge power-down per rank (pJ)
system.mem_ctrls0_1.selfRefreshEnergy     13191899430                       # Energy for self refresh per rank (pJ)
system.mem_ctrls0_1.totalEnergy          1498726990620                       # Total energy per rank (pJ)
system.mem_ctrls0_1.averagePower           560.286331                       # Core power per rank (mW)
system.mem_ctrls0_1.totalIdleTime        2235125052739                       # Total Idle time Per DRAM Rank
system.mem_ctrls0_1.memoryStateTime::IDLE   3145694401                       # Time in different power states
system.mem_ctrls0_1.memoryStateTime::REF  88913470000                       # Time in different power states
system.mem_ctrls0_1.memoryStateTime::SREF  44815711511                       # Time in different power states
system.mem_ctrls0_1.memoryStateTime::PRE_PDN 195632296013                       # Time in different power states
system.mem_ctrls0_1.memoryStateTime::ACT 347746272762                       # Time in different power states
system.mem_ctrls0_1.memoryStateTime::ACT_PDN 1994677045215                       # Time in different power states
system.mem_ctrls1.pwrStateResidencyTicks::UNDEFINED 146151918806976                       # Cumulative time (in ticks) in various power states
system.mem_ctrls1.bytes_read::cpu.inst             64                       # Number of bytes read from this memory
system.mem_ctrls1.bytes_read::cpu.data             64                       # Number of bytes read from this memory
system.mem_ctrls1.bytes_read::switch_cpus.inst        20288                       # Number of bytes read from this memory
system.mem_ctrls1.bytes_read::switch_cpus.data    482517120                       # Number of bytes read from this memory
system.mem_ctrls1.bytes_read::switch_cpus_1.inst         6656                       # Number of bytes read from this memory
system.mem_ctrls1.bytes_read::switch_cpus_1.data     85372352                       # Number of bytes read from this memory
system.mem_ctrls1.bytes_read::total         567916544                       # Number of bytes read from this memory
system.mem_ctrls1.bytes_inst_read::cpu.inst           64                       # Number of instructions bytes read from this memory
system.mem_ctrls1.bytes_inst_read::switch_cpus.inst        20288                       # Number of instructions bytes read from this memory
system.mem_ctrls1.bytes_inst_read::switch_cpus_1.inst         6656                       # Number of instructions bytes read from this memory
system.mem_ctrls1.bytes_inst_read::total        27008                       # Number of instructions bytes read from this memory
system.mem_ctrls1.bytes_written::writebacks    280521472                       # Number of bytes written to this memory
system.mem_ctrls1.bytes_written::total      280521472                       # Number of bytes written to this memory
system.mem_ctrls1.num_reads::cpu.inst               1                       # Number of read requests responded to by this memory
system.mem_ctrls1.num_reads::cpu.data               1                       # Number of read requests responded to by this memory
system.mem_ctrls1.num_reads::switch_cpus.inst          317                       # Number of read requests responded to by this memory
system.mem_ctrls1.num_reads::switch_cpus.data      7539330                       # Number of read requests responded to by this memory
system.mem_ctrls1.num_reads::switch_cpus_1.inst          104                       # Number of read requests responded to by this memory
system.mem_ctrls1.num_reads::switch_cpus_1.data      1333943                       # Number of read requests responded to by this memory
system.mem_ctrls1.num_reads::total            8873696                       # Number of read requests responded to by this memory
system.mem_ctrls1.num_writes::writebacks      4383148                       # Number of write requests responded to by this memory
system.mem_ctrls1.num_writes::total           4383148                       # Number of write requests responded to by this memory
system.mem_ctrls1.bw_read::cpu.inst                24                       # Total read bandwidth from this memory (bytes/s)
system.mem_ctrls1.bw_read::cpu.data                24                       # Total read bandwidth from this memory (bytes/s)
system.mem_ctrls1.bw_read::switch_cpus.inst         7584                       # Total read bandwidth from this memory (bytes/s)
system.mem_ctrls1.bw_read::switch_cpus.data    180384919                       # Total read bandwidth from this memory (bytes/s)
system.mem_ctrls1.bw_read::switch_cpus_1.inst         2488                       # Total read bandwidth from this memory (bytes/s)
system.mem_ctrls1.bw_read::switch_cpus_1.data     31915727                       # Total read bandwidth from this memory (bytes/s)
system.mem_ctrls1.bw_read::total            212310767                       # Total read bandwidth from this memory (bytes/s)
system.mem_ctrls1.bw_inst_read::cpu.inst           24                       # Instruction read bandwidth from this memory (bytes/s)
system.mem_ctrls1.bw_inst_read::switch_cpus.inst         7584                       # Instruction read bandwidth from this memory (bytes/s)
system.mem_ctrls1.bw_inst_read::switch_cpus_1.inst         2488                       # Instruction read bandwidth from this memory (bytes/s)
system.mem_ctrls1.bw_inst_read::total           10097                       # Instruction read bandwidth from this memory (bytes/s)
system.mem_ctrls1.bw_write::writebacks      104870565                       # Write bandwidth from this memory (bytes/s)
system.mem_ctrls1.bw_write::total           104870565                       # Write bandwidth from this memory (bytes/s)
system.mem_ctrls1.bw_total::writebacks      104870565                       # Total bandwidth to/from this memory (bytes/s)
system.mem_ctrls1.bw_total::cpu.inst               24                       # Total bandwidth to/from this memory (bytes/s)
system.mem_ctrls1.bw_total::cpu.data               24                       # Total bandwidth to/from this memory (bytes/s)
system.mem_ctrls1.bw_total::switch_cpus.inst         7584                       # Total bandwidth to/from this memory (bytes/s)
system.mem_ctrls1.bw_total::switch_cpus.data    180384919                       # Total bandwidth to/from this memory (bytes/s)
system.mem_ctrls1.bw_total::switch_cpus_1.inst         2488                       # Total bandwidth to/from this memory (bytes/s)
system.mem_ctrls1.bw_total::switch_cpus_1.data     31915727                       # Total bandwidth to/from this memory (bytes/s)
system.mem_ctrls1.bw_total::total           317181332                       # Total bandwidth to/from this memory (bytes/s)
system.mem_ctrls1.readReqs                    8873696                       # Number of read requests accepted
system.mem_ctrls1.writeReqs                   4383148                       # Number of write requests accepted
system.mem_ctrls1.readBursts                  8873696                       # Number of DRAM read bursts, including those serviced by the write queue
system.mem_ctrls1.writeBursts                 4383148                       # Number of DRAM write bursts, including those merged in the write queue
system.mem_ctrls1.bytesReadDRAM             567915328                       # Total number of bytes read from DRAM
system.mem_ctrls1.bytesReadWrQ                   1216                       # Total number of bytes read from write queue
system.mem_ctrls1.bytesWritten              280519488                       # Total number of bytes written to DRAM
system.mem_ctrls1.bytesReadSys              567916544                       # Total read bytes from the system interface side
system.mem_ctrls1.bytesWrittenSys           280521472                       # Total written bytes from the system interface side
system.mem_ctrls1.servicedByWrQ                    19                       # Number of DRAM read bursts serviced by the write queue
system.mem_ctrls1.mergedWrBursts                    0                       # Number of DRAM write bursts merged with an existing one
system.mem_ctrls1.neitherReadNorWriteReqs            0                       # Number of requests that are neither read nor write
system.mem_ctrls1.perBankRdBursts::0           554332                       # Per bank write bursts
system.mem_ctrls1.perBankRdBursts::1           553375                       # Per bank write bursts
system.mem_ctrls1.perBankRdBursts::2           553908                       # Per bank write bursts
system.mem_ctrls1.perBankRdBursts::3           556558                       # Per bank write bursts
system.mem_ctrls1.perBankRdBursts::4           555425                       # Per bank write bursts
system.mem_ctrls1.perBankRdBursts::5           554201                       # Per bank write bursts
system.mem_ctrls1.perBankRdBursts::6           554127                       # Per bank write bursts
system.mem_ctrls1.perBankRdBursts::7           555129                       # Per bank write bursts
system.mem_ctrls1.perBankRdBursts::8           556453                       # Per bank write bursts
system.mem_ctrls1.perBankRdBursts::9           552686                       # Per bank write bursts
system.mem_ctrls1.perBankRdBursts::10          552127                       # Per bank write bursts
system.mem_ctrls1.perBankRdBursts::11          554454                       # Per bank write bursts
system.mem_ctrls1.perBankRdBursts::12          555264                       # Per bank write bursts
system.mem_ctrls1.perBankRdBursts::13          555644                       # Per bank write bursts
system.mem_ctrls1.perBankRdBursts::14          555297                       # Per bank write bursts
system.mem_ctrls1.perBankRdBursts::15          554697                       # Per bank write bursts
system.mem_ctrls1.perBankWrBursts::0           275215                       # Per bank write bursts
system.mem_ctrls1.perBankWrBursts::1           274085                       # Per bank write bursts
system.mem_ctrls1.perBankWrBursts::2           273197                       # Per bank write bursts
system.mem_ctrls1.perBankWrBursts::3           274265                       # Per bank write bursts
system.mem_ctrls1.perBankWrBursts::4           274217                       # Per bank write bursts
system.mem_ctrls1.perBankWrBursts::5           273983                       # Per bank write bursts
system.mem_ctrls1.perBankWrBursts::6           273942                       # Per bank write bursts
system.mem_ctrls1.perBankWrBursts::7           273306                       # Per bank write bursts
system.mem_ctrls1.perBankWrBursts::8           273323                       # Per bank write bursts
system.mem_ctrls1.perBankWrBursts::9           272813                       # Per bank write bursts
system.mem_ctrls1.perBankWrBursts::10          273886                       # Per bank write bursts
system.mem_ctrls1.perBankWrBursts::11          275356                       # Per bank write bursts
system.mem_ctrls1.perBankWrBursts::12          274195                       # Per bank write bursts
system.mem_ctrls1.perBankWrBursts::13          273032                       # Per bank write bursts
system.mem_ctrls1.perBankWrBursts::14          273403                       # Per bank write bursts
system.mem_ctrls1.perBankWrBursts::15          274899                       # Per bank write bursts
system.mem_ctrls1.numRdRetry                        0                       # Number of times read queue was full causing retry
system.mem_ctrls1.numWrRetry                        0                       # Number of times write queue was full causing retry
system.mem_ctrls1.totGap                 2674930226118                       # Total gap between requests
system.mem_ctrls1.readPktSize::0                    0                       # Read request sizes (log2)
system.mem_ctrls1.readPktSize::1                    0                       # Read request sizes (log2)
system.mem_ctrls1.readPktSize::2                    0                       # Read request sizes (log2)
system.mem_ctrls1.readPktSize::3                    0                       # Read request sizes (log2)
system.mem_ctrls1.readPktSize::4                    0                       # Read request sizes (log2)
system.mem_ctrls1.readPktSize::5                    0                       # Read request sizes (log2)
system.mem_ctrls1.readPktSize::6              8873696                       # Read request sizes (log2)
system.mem_ctrls1.writePktSize::0                   0                       # Write request sizes (log2)
system.mem_ctrls1.writePktSize::1                   0                       # Write request sizes (log2)
system.mem_ctrls1.writePktSize::2                   0                       # Write request sizes (log2)
system.mem_ctrls1.writePktSize::3                   0                       # Write request sizes (log2)
system.mem_ctrls1.writePktSize::4                   0                       # Write request sizes (log2)
system.mem_ctrls1.writePktSize::5                   0                       # Write request sizes (log2)
system.mem_ctrls1.writePktSize::6             4383148                       # Write request sizes (log2)
system.mem_ctrls1.rdQLenPdf::0                8401807                       # What read queue length does an incoming req see
system.mem_ctrls1.rdQLenPdf::1                 339712                       # What read queue length does an incoming req see
system.mem_ctrls1.rdQLenPdf::2                 112658                       # What read queue length does an incoming req see
system.mem_ctrls1.rdQLenPdf::3                  19500                       # What read queue length does an incoming req see
system.mem_ctrls1.rdQLenPdf::4                      0                       # What read queue length does an incoming req see
system.mem_ctrls1.rdQLenPdf::5                      0                       # What read queue length does an incoming req see
system.mem_ctrls1.rdQLenPdf::6                      0                       # What read queue length does an incoming req see
system.mem_ctrls1.rdQLenPdf::7                      0                       # What read queue length does an incoming req see
system.mem_ctrls1.rdQLenPdf::8                      0                       # What read queue length does an incoming req see
system.mem_ctrls1.rdQLenPdf::9                      0                       # What read queue length does an incoming req see
system.mem_ctrls1.rdQLenPdf::10                     0                       # What read queue length does an incoming req see
system.mem_ctrls1.rdQLenPdf::11                     0                       # What read queue length does an incoming req see
system.mem_ctrls1.rdQLenPdf::12                     0                       # What read queue length does an incoming req see
system.mem_ctrls1.rdQLenPdf::13                     0                       # What read queue length does an incoming req see
system.mem_ctrls1.rdQLenPdf::14                     0                       # What read queue length does an incoming req see
system.mem_ctrls1.rdQLenPdf::15                     0                       # What read queue length does an incoming req see
system.mem_ctrls1.rdQLenPdf::16                     0                       # What read queue length does an incoming req see
system.mem_ctrls1.rdQLenPdf::17                     0                       # What read queue length does an incoming req see
system.mem_ctrls1.rdQLenPdf::18                     0                       # What read queue length does an incoming req see
system.mem_ctrls1.rdQLenPdf::19                     0                       # What read queue length does an incoming req see
system.mem_ctrls1.rdQLenPdf::20                     0                       # What read queue length does an incoming req see
system.mem_ctrls1.rdQLenPdf::21                     0                       # What read queue length does an incoming req see
system.mem_ctrls1.rdQLenPdf::22                     0                       # What read queue length does an incoming req see
system.mem_ctrls1.rdQLenPdf::23                     0                       # What read queue length does an incoming req see
system.mem_ctrls1.rdQLenPdf::24                     0                       # What read queue length does an incoming req see
system.mem_ctrls1.rdQLenPdf::25                     0                       # What read queue length does an incoming req see
system.mem_ctrls1.rdQLenPdf::26                     0                       # What read queue length does an incoming req see
system.mem_ctrls1.rdQLenPdf::27                     0                       # What read queue length does an incoming req see
system.mem_ctrls1.rdQLenPdf::28                     0                       # What read queue length does an incoming req see
system.mem_ctrls1.rdQLenPdf::29                     0                       # What read queue length does an incoming req see
system.mem_ctrls1.rdQLenPdf::30                     0                       # What read queue length does an incoming req see
system.mem_ctrls1.rdQLenPdf::31                     0                       # What read queue length does an incoming req see
system.mem_ctrls1.wrQLenPdf::0                      2                       # What write queue length does an incoming req see
system.mem_ctrls1.wrQLenPdf::1                      2                       # What write queue length does an incoming req see
system.mem_ctrls1.wrQLenPdf::2                      2                       # What write queue length does an incoming req see
system.mem_ctrls1.wrQLenPdf::3                      2                       # What write queue length does an incoming req see
system.mem_ctrls1.wrQLenPdf::4                      2                       # What write queue length does an incoming req see
system.mem_ctrls1.wrQLenPdf::5                      2                       # What write queue length does an incoming req see
system.mem_ctrls1.wrQLenPdf::6                      2                       # What write queue length does an incoming req see
system.mem_ctrls1.wrQLenPdf::7                      2                       # What write queue length does an incoming req see
system.mem_ctrls1.wrQLenPdf::8                      2                       # What write queue length does an incoming req see
system.mem_ctrls1.wrQLenPdf::9                      2                       # What write queue length does an incoming req see
system.mem_ctrls1.wrQLenPdf::10                     2                       # What write queue length does an incoming req see
system.mem_ctrls1.wrQLenPdf::11                     2                       # What write queue length does an incoming req see
system.mem_ctrls1.wrQLenPdf::12                     2                       # What write queue length does an incoming req see
system.mem_ctrls1.wrQLenPdf::13                     2                       # What write queue length does an incoming req see
system.mem_ctrls1.wrQLenPdf::14                     2                       # What write queue length does an incoming req see
system.mem_ctrls1.wrQLenPdf::15                137600                       # What write queue length does an incoming req see
system.mem_ctrls1.wrQLenPdf::16                143863                       # What write queue length does an incoming req see
system.mem_ctrls1.wrQLenPdf::17                246008                       # What write queue length does an incoming req see
system.mem_ctrls1.wrQLenPdf::18                255467                       # What write queue length does an incoming req see
system.mem_ctrls1.wrQLenPdf::19                256971                       # What write queue length does an incoming req see
system.mem_ctrls1.wrQLenPdf::20                257020                       # What write queue length does an incoming req see
system.mem_ctrls1.wrQLenPdf::21                256983                       # What write queue length does an incoming req see
system.mem_ctrls1.wrQLenPdf::22                256945                       # What write queue length does an incoming req see
system.mem_ctrls1.wrQLenPdf::23                257125                       # What write queue length does an incoming req see
system.mem_ctrls1.wrQLenPdf::24                256959                       # What write queue length does an incoming req see
system.mem_ctrls1.wrQLenPdf::25                256820                       # What write queue length does an incoming req see
system.mem_ctrls1.wrQLenPdf::26                256867                       # What write queue length does an incoming req see
system.mem_ctrls1.wrQLenPdf::27                256883                       # What write queue length does an incoming req see
system.mem_ctrls1.wrQLenPdf::28                257640                       # What write queue length does an incoming req see
system.mem_ctrls1.wrQLenPdf::29                258053                       # What write queue length does an incoming req see
system.mem_ctrls1.wrQLenPdf::30                259515                       # What write queue length does an incoming req see
system.mem_ctrls1.wrQLenPdf::31                256136                       # What write queue length does an incoming req see
system.mem_ctrls1.wrQLenPdf::32                255814                       # What write queue length does an incoming req see
system.mem_ctrls1.wrQLenPdf::33                   366                       # What write queue length does an incoming req see
system.mem_ctrls1.wrQLenPdf::34                    66                       # What write queue length does an incoming req see
system.mem_ctrls1.wrQLenPdf::35                    14                       # What write queue length does an incoming req see
system.mem_ctrls1.wrQLenPdf::36                     3                       # What write queue length does an incoming req see
system.mem_ctrls1.wrQLenPdf::37                     0                       # What write queue length does an incoming req see
system.mem_ctrls1.wrQLenPdf::38                     0                       # What write queue length does an incoming req see
system.mem_ctrls1.wrQLenPdf::39                     0                       # What write queue length does an incoming req see
system.mem_ctrls1.wrQLenPdf::40                     0                       # What write queue length does an incoming req see
system.mem_ctrls1.wrQLenPdf::41                     0                       # What write queue length does an incoming req see
system.mem_ctrls1.wrQLenPdf::42                     0                       # What write queue length does an incoming req see
system.mem_ctrls1.wrQLenPdf::43                     0                       # What write queue length does an incoming req see
system.mem_ctrls1.wrQLenPdf::44                     0                       # What write queue length does an incoming req see
system.mem_ctrls1.wrQLenPdf::45                     0                       # What write queue length does an incoming req see
system.mem_ctrls1.wrQLenPdf::46                     0                       # What write queue length does an incoming req see
system.mem_ctrls1.wrQLenPdf::47                     0                       # What write queue length does an incoming req see
system.mem_ctrls1.wrQLenPdf::48                     0                       # What write queue length does an incoming req see
system.mem_ctrls1.wrQLenPdf::49                     0                       # What write queue length does an incoming req see
system.mem_ctrls1.wrQLenPdf::50                     0                       # What write queue length does an incoming req see
system.mem_ctrls1.wrQLenPdf::51                     0                       # What write queue length does an incoming req see
system.mem_ctrls1.wrQLenPdf::52                     0                       # What write queue length does an incoming req see
system.mem_ctrls1.wrQLenPdf::53                     0                       # What write queue length does an incoming req see
system.mem_ctrls1.wrQLenPdf::54                     0                       # What write queue length does an incoming req see
system.mem_ctrls1.wrQLenPdf::55                     0                       # What write queue length does an incoming req see
system.mem_ctrls1.wrQLenPdf::56                     0                       # What write queue length does an incoming req see
system.mem_ctrls1.wrQLenPdf::57                     0                       # What write queue length does an incoming req see
system.mem_ctrls1.wrQLenPdf::58                     0                       # What write queue length does an incoming req see
system.mem_ctrls1.wrQLenPdf::59                     0                       # What write queue length does an incoming req see
system.mem_ctrls1.wrQLenPdf::60                     0                       # What write queue length does an incoming req see
system.mem_ctrls1.wrQLenPdf::61                     0                       # What write queue length does an incoming req see
system.mem_ctrls1.wrQLenPdf::62                     0                       # What write queue length does an incoming req see
system.mem_ctrls1.wrQLenPdf::63                     0                       # What write queue length does an incoming req see
system.mem_ctrls1.bytesPerActivate::samples      8790394                       # Bytes accessed per row activation
system.mem_ctrls1.bytesPerActivate::mean    96.518297                       # Bytes accessed per row activation
system.mem_ctrls1.bytesPerActivate::gmean    84.557840                       # Bytes accessed per row activation
system.mem_ctrls1.bytesPerActivate::stdev    63.902645                       # Bytes accessed per row activation
system.mem_ctrls1.bytesPerActivate::0-127      6153112     70.00%     70.00% # Bytes accessed per row activation
system.mem_ctrls1.bytesPerActivate::128-255      2152037     24.48%     94.48% # Bytes accessed per row activation
system.mem_ctrls1.bytesPerActivate::256-383       418723      4.76%     99.24% # Bytes accessed per row activation
system.mem_ctrls1.bytesPerActivate::384-511        46237      0.53%     99.77% # Bytes accessed per row activation
system.mem_ctrls1.bytesPerActivate::512-639        12893      0.15%     99.92% # Bytes accessed per row activation
system.mem_ctrls1.bytesPerActivate::640-767         4214      0.05%     99.96% # Bytes accessed per row activation
system.mem_ctrls1.bytesPerActivate::768-895         1465      0.02%     99.98% # Bytes accessed per row activation
system.mem_ctrls1.bytesPerActivate::896-1023          617      0.01%     99.99% # Bytes accessed per row activation
system.mem_ctrls1.bytesPerActivate::1024-1151         1096      0.01%    100.00% # Bytes accessed per row activation
system.mem_ctrls1.bytesPerActivate::total      8790394                       # Bytes accessed per row activation
system.mem_ctrls1.rdPerTurnAround::samples       255566                       # Reads before turning the bus around for writes
system.mem_ctrls1.rdPerTurnAround::mean     34.721587                       # Reads before turning the bus around for writes
system.mem_ctrls1.rdPerTurnAround::stdev    56.009494                       # Reads before turning the bus around for writes
system.mem_ctrls1.rdPerTurnAround::0-1023       255565    100.00%    100.00% # Reads before turning the bus around for writes
system.mem_ctrls1.rdPerTurnAround::27648-28671            1      0.00%    100.00% # Reads before turning the bus around for writes
system.mem_ctrls1.rdPerTurnAround::total       255566                       # Reads before turning the bus around for writes
system.mem_ctrls1.wrPerTurnAround::samples       255566                       # Writes before turning the bus around for reads
system.mem_ctrls1.wrPerTurnAround::mean     17.150626                       # Writes before turning the bus around for reads
system.mem_ctrls1.wrPerTurnAround::gmean    17.117585                       # Writes before turning the bus around for reads
system.mem_ctrls1.wrPerTurnAround::stdev     1.064670                       # Writes before turning the bus around for reads
system.mem_ctrls1.wrPerTurnAround::15               1      0.00%      0.00% # Writes before turning the bus around for reads
system.mem_ctrls1.wrPerTurnAround::16          113163     44.28%     44.28% # Writes before turning the bus around for reads
system.mem_ctrls1.wrPerTurnAround::17            3924      1.54%     45.82% # Writes before turning the bus around for reads
system.mem_ctrls1.wrPerTurnAround::18          126870     49.64%     95.46% # Writes before turning the bus around for reads
system.mem_ctrls1.wrPerTurnAround::19           10368      4.06%     99.51% # Writes before turning the bus around for reads
system.mem_ctrls1.wrPerTurnAround::20            1028      0.40%     99.92% # Writes before turning the bus around for reads
system.mem_ctrls1.wrPerTurnAround::21             153      0.06%     99.98% # Writes before turning the bus around for reads
system.mem_ctrls1.wrPerTurnAround::22              28      0.01%     99.99% # Writes before turning the bus around for reads
system.mem_ctrls1.wrPerTurnAround::23              13      0.01%     99.99% # Writes before turning the bus around for reads
system.mem_ctrls1.wrPerTurnAround::24              11      0.00%    100.00% # Writes before turning the bus around for reads
system.mem_ctrls1.wrPerTurnAround::25               2      0.00%    100.00% # Writes before turning the bus around for reads
system.mem_ctrls1.wrPerTurnAround::26               3      0.00%    100.00% # Writes before turning the bus around for reads
system.mem_ctrls1.wrPerTurnAround::27               2      0.00%    100.00% # Writes before turning the bus around for reads
system.mem_ctrls1.wrPerTurnAround::total       255566                       # Writes before turning the bus around for reads
system.mem_ctrls1.totQLat                235756284502                       # Total ticks spent queuing
system.mem_ctrls1.totMemAccLat           402137728252                       # Total ticks spent from burst creation until serviced by the DRAM
system.mem_ctrls1.totBusLat               44368385000                       # Total ticks spent in databus transfers
system.mem_ctrls1.avgQLat                    26568.05                       # Average queueing delay per DRAM burst
system.mem_ctrls1.avgBusLat                   5000.00                       # Average bus latency per DRAM burst
system.mem_ctrls1.avgMemAccLat               45318.05                       # Average memory access latency per DRAM burst
system.mem_ctrls1.avgRdBW                      212.31                       # Average DRAM read bandwidth in MiByte/s
system.mem_ctrls1.avgWrBW                      104.87                       # Average achieved write bandwidth in MiByte/s
system.mem_ctrls1.avgRdBWSys                   212.31                       # Average system read bandwidth in MiByte/s
system.mem_ctrls1.avgWrBWSys                   104.87                       # Average system write bandwidth in MiByte/s
system.mem_ctrls1.peakBW                     12800.00                       # Theoretical peak bandwidth in MiByte/s
system.mem_ctrls1.busUtil                        2.48                       # Data bus utilization in percentage
system.mem_ctrls1.busUtilRead                    1.66                       # Data bus utilization in percentage for reads
system.mem_ctrls1.busUtilWrite                   0.82                       # Data bus utilization in percentage for writes
system.mem_ctrls1.avgRdQLen                      1.03                       # Average read queue length when enqueuing
system.mem_ctrls1.avgWrQLen                     24.81                       # Average write queue length when enqueuing
system.mem_ctrls1.readRowHits                 3210484                       # Number of row buffer hits during reads
system.mem_ctrls1.writeRowHits                1255912                       # Number of row buffer hits during writes
system.mem_ctrls1.readRowHitRate                36.18                       # Row buffer hit rate for reads
system.mem_ctrls1.writeRowHitRate               28.65                       # Row buffer hit rate for writes
system.mem_ctrls1.avgGap                    201777.30                       # Average gap between requests
system.mem_ctrls1.pageHitRate                   33.69                       # Row buffer hit rate, read and write combined
system.mem_ctrls1_0.actEnergy             31363271100                       # Energy for activate commands per rank (pJ)
system.mem_ctrls1_0.preEnergy             16669958745                       # Energy for precharge commands per rank (pJ)
system.mem_ctrls1_0.readEnergy            31680572700                       # Energy for read commands per rank (pJ)
system.mem_ctrls1_0.writeEnergy           11443336200                       # Energy for write commands per rank (pJ)
system.mem_ctrls1_0.refreshEnergy        210465643440.000061                       # Energy for refresh commands per rank (pJ)
system.mem_ctrls1_0.actBackEnergy        195170277150                       # Energy for active background per rank (pJ)
system.mem_ctrls1_0.preBackEnergy          5490535200                       # Energy for precharge background per rank (pJ)
system.mem_ctrls1_0.actPowerDownEnergy   908649410040                       # Energy for active power-down per rank (pJ)
system.mem_ctrls1_0.prePowerDownEnergy    75481373760                       # Energy for precharge power-down per rank (pJ)
system.mem_ctrls1_0.selfRefreshEnergy     13062366900                       # Energy for self refresh per rank (pJ)
system.mem_ctrls1_0.totalEnergy          1499496224775                       # Total energy per rank (pJ)
system.mem_ctrls1_0.averagePower           560.573901                       # Core power per rank (mW)
system.mem_ctrls1_0.totalIdleTime        2232586592430                       # Total Idle time Per DRAM Rank
system.mem_ctrls1_0.memoryStateTime::IDLE   3245411949                       # Time in different power states
system.mem_ctrls1_0.memoryStateTime::REF  89060042000                       # Time in different power states
system.mem_ctrls1_0.memoryStateTime::SREF  43365654197                       # Time in different power states
system.mem_ctrls1_0.memoryStateTime::PRE_PDN 196567933085                       # Time in different power states
system.mem_ctrls1_0.memoryStateTime::ACT 350038400013                       # Time in different power states
system.mem_ctrls1_0.memoryStateTime::ACT_PDN 1992653048658                       # Time in different power states
system.mem_ctrls1_1.actEnergy             31400170620                       # Energy for activate commands per rank (pJ)
system.mem_ctrls1_1.preEnergy             16689586485                       # Energy for precharge commands per rank (pJ)
system.mem_ctrls1_1.readEnergy            31677481080                       # Energy for read commands per rank (pJ)
system.mem_ctrls1_1.writeEnergy           11436534540                       # Energy for write commands per rank (pJ)
system.mem_ctrls1_1.refreshEnergy        210149103840.000061                       # Energy for refresh commands per rank (pJ)
system.mem_ctrls1_1.actBackEnergy        193903721760                       # Energy for active background per rank (pJ)
system.mem_ctrls1_1.preBackEnergy          5480434080                       # Energy for precharge background per rank (pJ)
system.mem_ctrls1_1.actPowerDownEnergy   910393818090                       # Energy for active power-down per rank (pJ)
system.mem_ctrls1_1.prePowerDownEnergy    74466158400                       # Energy for precharge power-down per rank (pJ)
system.mem_ctrls1_1.selfRefreshEnergy     13269679785                       # Energy for self refresh per rank (pJ)
system.mem_ctrls1_1.totalEnergy          1498884994950                       # Total energy per rank (pJ)
system.mem_ctrls1_1.averagePower           560.345399                       # Core power per rank (mW)
system.mem_ctrls1_1.totalIdleTime        2235409586956                       # Total Idle time Per DRAM Rank
system.mem_ctrls1_1.memoryStateTime::IDLE   3173943501                       # Time in different power states
system.mem_ctrls1_1.memoryStateTime::REF  88924210000                       # Time in different power states
system.mem_ctrls1_1.memoryStateTime::SREF  44990414103                       # Time in different power states
system.mem_ctrls1_1.memoryStateTime::PRE_PDN 193914922380                       # Time in different power states
system.mem_ctrls1_1.memoryStateTime::ACT 347421178646                       # Time in different power states
system.mem_ctrls1_1.memoryStateTime::ACT_PDN 1996505821272                       # Time in different power states
system.pwrStateResidencyTicks::UNDEFINED 146151918806976                       # Cumulative time (in ticks) in various power states
system.cpu.branchPred.lookups                       0                       # Number of BP lookups
system.cpu.branchPred.condPredicted                 0                       # Number of conditional branches predicted
system.cpu.branchPred.condIncorrect                 0                       # Number of conditional branches incorrect
system.cpu.branchPred.BTBLookups                    0                       # Number of BTB lookups
system.cpu.branchPred.BTBHits                       0                       # Number of BTB hits
system.cpu.branchPred.BTBCorrect                    0                       # Number of correct BTB predictions (this stat may not work properly.
system.cpu.branchPred.BTBHitPct                   nan                       # BTB Hit Percentage
system.cpu.branchPred.usedRAS                       0                       # Number of times the RAS was used to get a target.
system.cpu.branchPred.RASInCorrect                  0                       # Number of incorrect RAS predictions.
system.cpu.branchPred.indirectLookups               0                       # Number of indirect predictor lookups.
system.cpu.branchPred.indirectHits                  0                       # Number of indirect target hits.
system.cpu.branchPred.indirectMisses                0                       # Number of indirect misses.
system.cpu.branchPredindirectMispredicted            0                       # Number of mispredicted indirect branches.
system.cpu_voltage_domain.voltage                   1                       # Voltage in Volts
system.cpu_clk_domain.clock                       333                       # Clock period in ticks
system.cpu.dtb.fetch_hits                           0                       # ITB hits
system.cpu.dtb.fetch_misses                         0                       # ITB misses
system.cpu.dtb.fetch_acv                            0                       # ITB acv
system.cpu.dtb.fetch_accesses                       0                       # ITB accesses
system.cpu.dtb.read_hits                           13                       # DTB read hits
system.cpu.dtb.read_misses                          0                       # DTB read misses
system.cpu.dtb.read_acv                             0                       # DTB read access violations
system.cpu.dtb.read_accesses                       13                       # DTB read accesses
system.cpu.dtb.write_hits                           0                       # DTB write hits
system.cpu.dtb.write_misses                         0                       # DTB write misses
system.cpu.dtb.write_acv                            0                       # DTB write access violations
system.cpu.dtb.write_accesses                       0                       # DTB write accesses
system.cpu.dtb.data_hits                           13                       # DTB hits
system.cpu.dtb.data_misses                          0                       # DTB misses
system.cpu.dtb.data_acv                             0                       # DTB access violations
system.cpu.dtb.data_accesses                       13                       # DTB accesses
system.cpu.itb.fetch_hits                           4                       # ITB hits
system.cpu.itb.fetch_misses                         0                       # ITB misses
system.cpu.itb.fetch_acv                            0                       # ITB acv
system.cpu.itb.fetch_accesses                       4                       # ITB accesses
system.cpu.itb.read_hits                            0                       # DTB read hits
system.cpu.itb.read_misses                          0                       # DTB read misses
system.cpu.itb.read_acv                             0                       # DTB read access violations
system.cpu.itb.read_accesses                        0                       # DTB read accesses
system.cpu.itb.write_hits                           0                       # DTB write hits
system.cpu.itb.write_misses                         0                       # DTB write misses
system.cpu.itb.write_acv                            0                       # DTB write access violations
system.cpu.itb.write_accesses                       0                       # DTB write accesses
system.cpu.itb.data_hits                            0                       # DTB hits
system.cpu.itb.data_misses                          0                       # DTB misses
system.cpu.itb.data_acv                             0                       # DTB access violations
system.cpu.itb.data_accesses                        0                       # DTB accesses
system.cpu.workload.num_syscalls                    0                       # Number of system calls
system.cpu.pwrStateResidencyTicks::ON    2674930489902                       # Cumulative time (in ticks) in various power states
system.cpu.numCycles                              582                       # number of cpu cycles simulated
system.cpu.numWorkItemsStarted                      0                       # number of work items this cpu started
system.cpu.numWorkItemsCompleted                    0                       # number of work items this cpu completed
system.cpu.fetch.icacheStallCycles                 49                       # Number of cycles fetch is stalled on an Icache miss
system.cpu.fetch.Insts                             23                       # Number of instructions fetch has processed
system.cpu.fetch.Cycles                             3                       # Number of cycles fetch has run and was not squashing or blocked
system.cpu.fetch.SquashCycles                       3                       # Number of cycles fetch has spent squashing
system.cpu.fetch.PendingDrainCycles                 7                       # Number of cycles fetch has spent waiting on pipes to drain
system.cpu.fetch.CacheLines                         4                       # Number of cache lines fetched
system.cpu.fetch.IcacheSquashes                     2                       # Number of outstanding Icache misses that were squashed
system.cpu.fetch.rateDist::samples                 60                       # Number of instructions fetched each cycle (Total)
system.cpu.fetch.rateDist::mean              0.383333                       # Number of instructions fetched each cycle (Total)
[...]
system.switch_cpus_1.iq.fu_busy_rate         0.055136                       # FU busy rate (busy events/executed inst)
system.switch_cpus_1.iq.int_inst_queue_reads    601582339                       # Number of integer instruction queue reads
system.switch_cpus_1.iq.int_inst_queue_writes     79842017                       # Number of integer instruction queue writes
system.switch_cpus_1.iq.int_inst_queue_wakeup_accesses     72911445                       # Number of integer instruction queue wakeup accesses
system.switch_cpus_1.iq.fp_inst_queue_reads    313225709                       # Number of floating instruction queue reads
system.switch_cpus_1.iq.fp_inst_queue_writes    167481448                       # Number of floating instruction queue writes
system.switch_cpus_1.iq.fp_inst_queue_wakeup_accesses    142525193                       # Number of floating instruction queue wakeup accesses
system.switch_cpus_1.iq.int_alu_accesses     81282340                       # Number of integer alu accesses
system.switch_cpus_1.iq.fp_alu_accesses     160129833                       # Number of floating point alu accesses
system.switch_cpus_1.iew.lsq.thread0.forwLoads       562455                       # Number of loads that had data forwarded from stores
system.switch_cpus_1.iew.lsq.thread0.invAddrLoads            0                       # Number of loads ignored due to an invalid address
system.switch_cpus_1.iew.lsq.thread0.squashedLoads      9698990                       # Number of loads squashed
system.switch_cpus_1.iew.lsq.thread0.ignoredResponses           34                       # Number of memory responses ignored because the instruction is squashed
system.switch_cpus_1.iew.lsq.thread0.memOrderViolation          514                       # Number of memory ordering violations
system.switch_cpus_1.iew.lsq.thread0.squashedStores      1086743                       # Number of stores squashed
system.switch_cpus_1.iew.lsq.thread0.invAddrSwpfs            0                       # Number of software prefetches ignored due to an invalid address
system.switch_cpus_1.iew.lsq.thread0.blockedLoads            0                       # Number of blocked loads due to partial load-store forwarding
system.switch_cpus_1.iew.lsq.thread0.rescheduledLoads            0                       # Number of loads that were rescheduled
system.switch_cpus_1.iew.lsq.thread0.cacheBlocked     11969454                       # Number of times an access to memory failed due to the cache being blocked
system.switch_cpus_1.iew.iewIdleCycles              0                       # Number of cycles IEW is idle
system.switch_cpus_1.iew.iewSquashCycles       306913                       # Number of cycles IEW is squashing
system.switch_cpus_1.iew.iewBlockCycles      10192168                       # Number of cycles IEW is blocking
system.switch_cpus_1.iew.iewUnblockCycles    130532582                       # Number of cycles IEW is unblocking
system.switch_cpus_1.iew.iewDispatchedInsts    223847552                       # Number of instructions dispatched to IQ
system.switch_cpus_1.iew.iewDispSquashedInsts         1707                       # Number of squashed instructions skipped by dispatch
system.switch_cpus_1.iew.iewDispLoadInsts     93114598                       # Number of dispatched load instructions
system.switch_cpus_1.iew.iewDispStoreInsts     11679190                       # Number of dispatched store instructions
system.switch_cpus_1.iew.iewDispNonSpecInsts            0                       # Number of dispatched non-speculative instructions
system.switch_cpus_1.iew.iewIQFullEvents        36069                       # Number of times the IQ has become full, causing a stall
system.switch_cpus_1.iew.iewLSQFullEvents    130473790                       # Number of times the LSQ has become full, causing a stall
system.switch_cpus_1.iew.memOrderViolationEvents          514                       # Number of memory order violations
system.switch_cpus_1.iew.predictedTakenIncorrect         3860                       # Number of branches that were predicted taken incorrectly
system.switch_cpus_1.iew.predictedNotTakenIncorrect          457                       # Number of branches that were predicted not taken incorrectly
system.switch_cpus_1.iew.branchMispredicts         4317                       # Number of branch mispredicts detected at execute
system.switch_cpus_1.iew.iewExecutedInsts    228716777                       # Number of executed instructions
system.switch_cpus_1.iew.iewExecLoadInsts    104314255                       # Number of load instructions executed
system.switch_cpus_1.iew.iewExecSquashedInsts        80537                       # Number of squashed instructions skipped in execute
system.switch_cpus_1.iew.exec_swp                   0                       # number of swp insts executed
system.switch_cpus_1.iew.exec_nop              186043                       # number of nop insts executed
system.switch_cpus_1.iew.exec_refs          115033646                       # number of memory reference insts executed
system.switch_cpus_1.iew.exec_branches        1994190                       # Number of branches executed
system.switch_cpus_1.iew.exec_stores         10719391                       # Number of stores executed
system.switch_cpus_1.iew.exec_rate           0.514787                       # Inst execution rate
system.switch_cpus_1.iew.wb_sent            216510235                       # cumulative count of insts sent to commit
system.switch_cpus_1.iew.wb_count           215436638                       # cumulative count of insts written-back
system.switch_cpus_1.iew.wb_producers       143037073                       # num instructions producing a value
system.switch_cpus_1.iew.wb_consumers       149912039                       # num instructions consuming a value
system.switch_cpus_1.iew.wb_rate             0.484897                       # insts written-back per cycle
system.switch_cpus_1.iew.wb_fanout           0.954140                       # average fanout of values written-back
system.switch_cpus_1.commit.commitSquashedInsts     22569937                       # The number of squashed insts skipped by commit
system.switch_cpus_1.commit.branchMispredicts         4272                       # The number of times a branch was mispredicted
system.switch_cpus_1.commit.committed_per_cycle::samples    441295112                       # Number of insts commited each cycle
system.switch_cpus_1.commit.committed_per_cycle::mean     0.453632                       # Number of insts commited each cycle
system.switch_cpus_1.commit.committed_per_cycle::stdev     1.679513                       # Number of insts commited each cycle
system.switch_cpus_1.commit.committed_per_cycle::underflows            0      0.00%      0.00% # Number of insts commited each cycle
system.switch_cpus_1.commit.committed_per_cycle::0    398152709     90.22%     90.22% # Number of insts commited each cycle
system.switch_cpus_1.commit.committed_per_cycle::1     12545061      2.84%     93.07% # Number of insts commited each cycle
system.switch_cpus_1.commit.committed_per_cycle::2      4288560      0.97%     94.04% # Number of insts commited each cycle
system.switch_cpus_1.commit.committed_per_cycle::3      2662556      0.60%     94.64% # Number of insts commited each cycle
system.switch_cpus_1.commit.committed_per_cycle::4      2251577      0.51%     95.15% # Number of insts commited each cycle
system.switch_cpus_1.commit.committed_per_cycle::5      1605870      0.36%     95.52% # Number of insts commited each cycle
system.switch_cpus_1.commit.committed_per_cycle::6      1668857      0.38%     95.89% # Number of insts commited each cycle
system.switch_cpus_1.commit.committed_per_cycle::7       932510      0.21%     96.11% # Number of insts commited each cycle
system.switch_cpus_1.commit.committed_per_cycle::8     17187412      3.89%    100.00% # Number of insts commited each cycle
system.switch_cpus_1.commit.committed_per_cycle::overflows            0      0.00%    100.00% # Number of insts commited each cycle
system.switch_cpus_1.commit.committed_per_cycle::min_value            0                       # Number of insts commited each cycle
system.switch_cpus_1.commit.committed_per_cycle::max_value            8                       # Number of insts commited each cycle
system.switch_cpus_1.commit.committed_per_cycle::total    441295112                       # Number of insts commited each cycle
system.switch_cpus_1.commit.committedInsts    200185515                       # Number of instructions committed
system.switch_cpus_1.commit.committedOps    200185515                       # Number of ops (including micro ops) committed
system.switch_cpus_1.commit.swp_count               0                       # Number of s/w prefetches committed
system.switch_cpus_1.commit.refs             94008030                       # Number of memory references committed
system.switch_cpus_1.commit.loads            83415586                       # Number of loads committed
system.switch_cpus_1.commit.membars                 0                       # Number of memory barriers committed
system.switch_cpus_1.commit.branches          1780705                       # Number of branches committed
system.switch_cpus_1.commit.fp_insts        133556284                       # Number of committed floating point instructions.
system.switch_cpus_1.commit.int_insts       133992906                       # Number of committed integer instructions.
system.switch_cpus_1.commit.function_calls            0                       # Number of function calls committed.
system.switch_cpus_1.commit.op_class_0::No_OpClass       185513      0.09%      0.09% # Class of committed instruction
system.switch_cpus_1.commit.op_class_0::IntAlu     39964775     19.96%     20.06% # Class of committed instruction
system.switch_cpus_1.commit.op_class_0::IntMult        96303      0.05%     20.10% # Class of committed instruction
system.switch_cpus_1.commit.op_class_0::IntDiv            0      0.00%     20.10% # Class of committed instruction
system.switch_cpus_1.commit.op_class_0::FloatAdd     26372358     13.17%     33.28% # Class of committed instruction
system.switch_cpus_1.commit.op_class_0::FloatCmp            0      0.00%     33.28% # Class of committed instruction
system.switch_cpus_1.commit.op_class_0::FloatCvt            0      0.00%     33.28% # Class of committed instruction
system.switch_cpus_1.commit.op_class_0::FloatMult     39558536     19.76%     53.04% # Class of committed instruction
system.switch_cpus_1.commit.op_class_0::FloatMultAcc            0      0.00%     53.04% # Class of committed instruction
system.switch_cpus_1.commit.op_class_0::FloatDiv            0      0.00%     53.04% # Class of committed instruction
system.switch_cpus_1.commit.op_class_0::FloatMisc            0      0.00%     53.04% # Class of committed instruction
system.switch_cpus_1.commit.op_class_0::FloatSqrt            0      0.00%     53.04% # Class of committed instruction
system.switch_cpus_1.commit.op_class_0::SimdAdd            0      0.00%     53.04% # Class of committed instruction
system.switch_cpus_1.commit.op_class_0::SimdAddAcc            0      0.00%     53.04% # Class of committed instruction
system.switch_cpus_1.commit.op_class_0::SimdAlu            0      0.00%     53.04% # Class of committed instruction
system.switch_cpus_1.commit.op_class_0::SimdCmp            0      0.00%     53.04% # Class of committed instruction
system.switch_cpus_1.commit.op_class_0::SimdCvt            0      0.00%     53.04% # Class of committed instruction
system.switch_cpus_1.commit.op_class_0::SimdMisc            0      0.00%     53.04% # Class of committed instruction
system.switch_cpus_1.commit.op_class_0::SimdMult            0      0.00%     53.04% # Class of committed instruction
system.switch_cpus_1.commit.op_class_0::SimdMultAcc            0      0.00%     53.04% # Class of committed instruction
system.switch_cpus_1.commit.op_class_0::SimdShift            0      0.00%     53.04% # Class of committed instruction
system.switch_cpus_1.commit.op_class_0::SimdShiftAcc            0      0.00%     53.04% # Class of committed instruction
system.switch_cpus_1.commit.op_class_0::SimdSqrt            0      0.00%     53.04% # Class of committed instruction
system.switch_cpus_1.commit.op_class_0::SimdFloatAdd            0      0.00%     53.04% # Class of committed instruction
system.switch_cpus_1.commit.op_class_0::SimdFloatAlu            0      0.00%     53.04% # Class of committed instruction
system.switch_cpus_1.commit.op_class_0::SimdFloatCmp            0      0.00%     53.04% # Class of committed instruction
system.switch_cpus_1.commit.op_class_0::SimdFloatCvt            0      0.00%     53.04% # Class of committed instruction
system.switch_cpus_1.commit.op_class_0::SimdFloatDiv            0      0.00%     53.04% # Class of committed instruction
system.switch_cpus_1.commit.op_class_0::SimdFloatMisc            0      0.00%     53.04% # Class of committed instruction
system.switch_cpus_1.commit.op_class_0::SimdFloatMult            0      0.00%     53.04% # Class of committed instruction
system.switch_cpus_1.commit.op_class_0::SimdFloatMultAcc            0      0.00%     53.04% # Class of committed instruction
system.switch_cpus_1.commit.op_class_0::SimdFloatSqrt            0      0.00%     53.04% # Class of committed instruction
system.switch_cpus_1.commit.op_class_0::MemRead     24580982     12.28%     65.32% # Class of committed instruction
system.switch_cpus_1.commit.op_class_0::MemWrite      1801658      0.90%     66.22% # Class of committed instruction
system.switch_cpus_1.commit.op_class_0::FloatMemRead     58834604     29.39%     95.61% # Class of committed instruction
system.switch_cpus_1.commit.op_class_0::FloatMemWrite      8790786      4.39%    100.00% # Class of committed instruction
system.switch_cpus_1.commit.op_class_0::IprAccess            0      0.00%    100.00% # Class of committed instruction
system.switch_cpus_1.commit.op_class_0::InstPrefetch            0      0.00%    100.00% # Class of committed instruction
system.switch_cpus_1.commit.op_class_0::total    200185515                       # Class of committed instruction
system.switch_cpus_1.commit.bw_lim_events     17187412                       # number cycles where commit BW limit reached
system.switch_cpus_1.rob.rob_reads          642934279                       # The number of ROB reads
system.switch_cpus_1.rob.rob_writes         448469218                       # The number of ROB writes
system.switch_cpus_1.timesIdled                   373                       # Number of times that the entire CPU went into an idle state and unscheduled itself
system.switch_cpus_1.idleCycles                 40567                       # Total number of cycles that the CPU has spent unscheduled due to idling
system.switch_cpus_1.committedInsts         200000002                       # Number of Instructions Simulated
system.switch_cpus_1.committedOps           200000002                       # Number of Ops (including micro ops) Simulated
system.switch_cpus_1.cpi                     2.221470                       # CPI: Cycles Per Instruction
system.switch_cpus_1.cpi_total               2.221470                       # CPI: Total CPI of All Threads
system.switch_cpus_1.ipc                     0.450152                       # IPC: Instructions Per Cycle
system.switch_cpus_1.ipc_total               0.450152                       # IPC: Total IPC of All Threads
system.switch_cpus_1.int_regfile_reads      181603718                       # number of integer regfile reads
system.switch_cpus_1.int_regfile_writes      69113489                       # number of integer regfile writes
system.switch_cpus_1.fp_regfile_reads       147036855                       # number of floating regfile reads
system.switch_cpus_1.fp_regfile_writes      133622110                       # number of floating regfile writes
system.tol3bus.snoop_filter.tot_requests     39183914                       # Total number of requests made to the snoop filter.
system.tol3bus.snoop_filter.hit_single_requests     19589630                       # Number of requests hitting in the snoop filter with a single holder of the requested data.
system.tol3bus.snoop_filter.hit_multi_requests            0                       # Number of requests hitting in the snoop filter with multiple (>1) holders of the requested data.
system.tol3bus.snoop_filter.tot_snoops        1359482                       # Total number of snoops made to the snoop filter.
system.tol3bus.snoop_filter.hit_single_snoops      1359482                       # Number of snoops hitting in the snoop filter with a single holder of the requested data.
system.tol3bus.snoop_filter.hit_multi_snoops            0                       # Number of snoops hitting in the snoop filter with multiple (>1) holders of the requested data.
system.tol3bus.pwrStateResidencyTicks::UNDEFINED 146151918806976                       # Cumulative time (in ticks) in various power states
system.tol3bus.trans_dist::ReadResp          19456431                       # Transaction distribution
system.tol3bus.trans_dist::WritebackDirty     17801748                       # Transaction distribution
system.tol3bus.trans_dist::CleanEvict        20257735                       # Transaction distribution
system.tol3bus.trans_dist::UpgradeReq               6                       # Transaction distribution
system.tol3bus.trans_dist::UpgradeResp              6                       # Transaction distribution
system.tol3bus.trans_dist::ReadExReq           137853                       # Transaction distribution
system.tol3bus.trans_dist::ReadExResp          137853                       # Transaction distribution
system.tol3bus.trans_dist::ReadSharedReq     19456431                       # Transaction distribution
system.tol3bus.pkt_count_system.cpu.l2.mem_side::system.l3.cpu_side     58778204                       # Packet count per connected master and slave (bytes)
system.tol3bus.pkt_size_system.cpu.l2.mem_side::system.l3.cpu_side   1832284800                       # Cumulative packet size per connected master and slave (bytes)
system.tol3bus.snoops                        18469859                       # Total snoops (count)
system.tol3bus.snoopTraffic                 561061248                       # Total snoop traffic (bytes)
system.tol3bus.snoop_fanout::samples         38064149                       # Request fanout histogram
system.tol3bus.snoop_fanout::mean            0.035716                       # Request fanout histogram
system.tol3bus.snoop_fanout::stdev           0.185580                       # Request fanout histogram
system.tol3bus.snoop_fanout::underflows             0      0.00%      0.00% # Request fanout histogram
system.tol3bus.snoop_fanout::0               36704667     96.43%     96.43% # Request fanout histogram
system.tol3bus.snoop_fanout::1                1359482      3.57%    100.00% # Request fanout histogram
system.tol3bus.snoop_fanout::overflows              0      0.00%    100.00% # Request fanout histogram
system.tol3bus.snoop_fanout::min_value              0                       # Request fanout histogram
system.tol3bus.snoop_fanout::max_value              1                       # Request fanout histogram
system.tol3bus.snoop_fanout::total           38064149                       # Request fanout histogram
system.tol3bus.reqLayer0.occupancy        16056953640                       # Layer occupancy (ticks)
system.tol3bus.reqLayer0.utilization              0.6                       # Layer utilization (%)
system.tol3bus.respLayer0.occupancy       13049795142                       # Layer occupancy (ticks)
system.tol3bus.respLayer0.utilization             0.5                       # Layer utilization (%)

---------- End Simulation Statistics   ----------
