
---------- Begin Simulation Statistics ----------
sim_seconds                                  1.253748                       # Number of seconds simulated
sim_ticks                                1253747954909                       # Number of ticks simulated
final_tick                               191305057869909                       # Number of ticks from beginning of simulation (restored from checkpoints and never reset)
sim_freq                                 1000000000000                       # Frequency of simulated ticks
host_inst_rate                                 400728                       # Simulator instruction rate (inst/s)
host_op_rate                                   400728                       # Simulator op (including micro ops) rate (op/s)
host_tick_rate                              418676110                       # Simulator tick rate (ticks/s)
host_mem_usage                                2538880                       # Number of bytes of host memory used
host_seconds                                  2994.55                       # Real time elapsed on the host
sim_insts                                  1200000007                       # Number of instructions simulated
sim_ops                                    1200000007                       # Number of ops (including micro ops) simulated
system.voltage_domain.voltage                       1                       # Voltage in Volts
system.clk_domain.clock                          1000                       # Clock period in ticks
system.mem_ctrls0.pwrStateResidencyTicks::UNDEFINED 191305057869909                       # Cumulative time (in ticks) in various power states
system.mem_ctrls0.bytes_read::cpu.inst            192                       # Number of bytes read from this memory
system.mem_ctrls0.bytes_read::cpu.data            192                       # Number of bytes read from this memory
system.mem_ctrls0.bytes_read::switch_cpus.inst        12928                       # Number of bytes read from this memory
system.mem_ctrls0.bytes_read::switch_cpus.data     20540224                       # Number of bytes read from this memory
system.mem_ctrls0.bytes_read::switch_cpus_1.inst          320                       # Number of bytes read from this memory
system.mem_ctrls0.bytes_read::switch_cpus_1.data      4468224                       # Number of bytes read from this memory
system.mem_ctrls0.bytes_read::total          25022080                       # Number of bytes read from this memory
system.mem_ctrls0.bytes_inst_read::cpu.inst          192                       # Number of instructions bytes read from this memory
system.mem_ctrls0.bytes_inst_read::switch_cpus.inst        12928                       # Number of instructions bytes read from this memory
system.mem_ctrls0.bytes_inst_read::switch_cpus_1.inst          320                       # Number of instructions bytes read from this memory
system.mem_ctrls0.bytes_inst_read::total        13440                       # Number of instructions bytes read from this memory
system.mem_ctrls0.bytes_written::writebacks     16309696                       # Number of bytes written to this memory
system.mem_ctrls0.bytes_written::total       16309696                       # Number of bytes written to this memory
system.mem_ctrls0.num_reads::cpu.inst               3                       # Number of read requests responded to by this memory
system.mem_ctrls0.num_reads::cpu.data               3                       # Number of read requests responded to by this memory
system.mem_ctrls0.num_reads::switch_cpus.inst          202                       # Number of read requests responded to by this memory
system.mem_ctrls0.num_reads::switch_cpus.data       320941                       # Number of read requests responded to by this memory
system.mem_ctrls0.num_reads::switch_cpus_1.inst            5                       # Number of read requests responded to by this memory
system.mem_ctrls0.num_reads::switch_cpus_1.data        69816                       # Number of read requests responded to by this memory
system.mem_ctrls0.num_reads::total             390970                       # Number of read requests responded to by this memory
system.mem_ctrls0.num_writes::writebacks       254839                       # Number of write requests responded to by this memory
system.mem_ctrls0.num_writes::total            254839                       # Number of write requests responded to by this memory
system.mem_ctrls0.bw_read::cpu.inst               153                       # Total read bandwidth from this memory (bytes/s)
system.mem_ctrls0.bw_read::cpu.data               153                       # Total read bandwidth from this memory (bytes/s)
system.mem_ctrls0.bw_read::switch_cpus.inst        10311                       # Total read bandwidth from this memory (bytes/s)
system.mem_ctrls0.bw_read::switch_cpus.data     16383057                       # Total read bandwidth from this memory (bytes/s)
system.mem_ctrls0.bw_read::switch_cpus_1.inst          255                       # Total read bandwidth from this memory (bytes/s)
system.mem_ctrls0.bw_read::switch_cpus_1.data      3563893                       # Total read bandwidth from this memory (bytes/s)
system.mem_ctrls0.bw_read::total             19957823                       # Total read bandwidth from this memory (bytes/s)
system.mem_ctrls0.bw_inst_read::cpu.inst          153                       # Instruction read bandwidth from this memory (bytes/s)
system.mem_ctrls0.bw_inst_read::switch_cpus.inst        10311                       # Instruction read bandwidth from this memory (bytes/s)
system.mem_ctrls0.bw_inst_read::switch_cpus_1.inst          255                       # Instruction read bandwidth from this memory (bytes/s)
system.mem_ctrls0.bw_inst_read::total           10720                       # Instruction read bandwidth from this memory (bytes/s)
system.mem_ctrls0.bw_write::writebacks       13008752                       # Write bandwidth from this memory (bytes/s)
system.mem_ctrls0.bw_write::total            13008752                       # Write bandwidth from this memory (bytes/s)
system.mem_ctrls0.bw_total::writebacks       13008752                       # Total bandwidth to/from this memory (bytes/s)
system.mem_ctrls0.bw_total::cpu.inst              153                       # Total bandwidth to/from this memory (bytes/s)
system.mem_ctrls0.bw_total::cpu.data              153                       # Total bandwidth to/from this memory (bytes/s)
system.mem_ctrls0.bw_total::switch_cpus.inst        10311                       # Total bandwidth to/from this memory (bytes/s)
system.mem_ctrls0.bw_total::switch_cpus.data     16383057                       # Total bandwidth to/from this memory (bytes/s)
system.mem_ctrls0.bw_total::switch_cpus_1.inst          255                       # Total bandwidth to/from this memory (bytes/s)
system.mem_ctrls0.bw_total::switch_cpus_1.data      3563893                       # Total bandwidth to/from this memory (bytes/s)
system.mem_ctrls0.bw_total::total            32966575                       # Total bandwidth to/from this memory (bytes/s)
system.mem_ctrls0.readReqs                     390970                       # Number of read requests accepted
system.mem_ctrls0.writeReqs                    254839                       # Number of write requests accepted
system.mem_ctrls0.readBursts                   390970                       # Number of DRAM read bursts, including those serviced by the write queue
system.mem_ctrls0.writeBursts                  254839                       # Number of DRAM write bursts, including those merged in the write queue
system.mem_ctrls0.bytesReadDRAM              24960704                       # Total number of bytes read from DRAM
system.mem_ctrls0.bytesReadWrQ                  61376                       # Total number of bytes read from write queue
system.mem_ctrls0.bytesWritten               16308224                       # Total number of bytes written to DRAM
system.mem_ctrls0.bytesReadSys               25022080                       # Total read bytes from the system interface side
system.mem_ctrls0.bytesWrittenSys            16309696                       # Total written bytes from the system interface side
system.mem_ctrls0.servicedByWrQ                   959                       # Number of DRAM read bursts serviced by the write queue
system.mem_ctrls0.mergedWrBursts                    0                       # Number of DRAM write bursts merged with an existing one
system.mem_ctrls0.neitherReadNorWriteReqs            0                       # Number of requests that are neither read nor write
system.mem_ctrls0.perBankRdBursts::0            25578                       # Per bank write bursts
system.mem_ctrls0.perBankRdBursts::1            25087                       # Per bank write bursts
system.mem_ctrls0.perBankRdBursts::2            25823                       # Per bank write bursts
system.mem_ctrls0.perBankRdBursts::3            25097                       # Per bank write bursts
system.mem_ctrls0.perBankRdBursts::4            23004                       # Per bank write bursts
system.mem_ctrls0.perBankRdBursts::5            23758                       # Per bank write bursts
system.mem_ctrls0.perBankRdBursts::6            23983                       # Per bank write bursts
system.mem_ctrls0.perBankRdBursts::7            24726                       # Per bank write bursts
system.mem_ctrls0.perBankRdBursts::8            25017                       # Per bank write bursts
system.mem_ctrls0.perBankRdBursts::9            23789                       # Per bank write bursts
system.mem_ctrls0.perBankRdBursts::10           24406                       # Per bank write bursts
system.mem_ctrls0.perBankRdBursts::11           23784                       # Per bank write bursts
system.mem_ctrls0.perBankRdBursts::12           22656                       # Per bank write bursts
system.mem_ctrls0.perBankRdBursts::13           23606                       # Per bank write bursts
system.mem_ctrls0.perBankRdBursts::14           24126                       # Per bank write bursts
system.mem_ctrls0.perBankRdBursts::15           25571                       # Per bank write bursts
system.mem_ctrls0.perBankWrBursts::0            16758                       # Per bank write bursts
system.mem_ctrls0.perBankWrBursts::1            16585                       # Per bank write bursts
system.mem_ctrls0.perBankWrBursts::2            16715                       # Per bank write bursts
system.mem_ctrls0.perBankWrBursts::3            16129                       # Per bank write bursts
system.mem_ctrls0.perBankWrBursts::4            14573                       # Per bank write bursts
system.mem_ctrls0.perBankWrBursts::5            15531                       # Per bank write bursts
system.mem_ctrls0.perBankWrBursts::6            15910                       # Per bank write bursts
system.mem_ctrls0.perBankWrBursts::7            16346                       # Per bank write bursts
system.mem_ctrls0.perBankWrBursts::8            16385                       # Per bank write bursts
system.mem_ctrls0.perBankWrBursts::9            15669                       # Per bank write bursts
system.mem_ctrls0.perBankWrBursts::10           15844                       # Per bank write bursts
system.mem_ctrls0.perBankWrBursts::11           15570                       # Per bank write bursts
system.mem_ctrls0.perBankWrBursts::12           14882                       # Per bank write bursts
system.mem_ctrls0.perBankWrBursts::13           15340                       # Per bank write bursts
system.mem_ctrls0.perBankWrBursts::14           15749                       # Per bank write bursts
system.mem_ctrls0.perBankWrBursts::15           16830                       # Per bank write bursts
system.mem_ctrls0.numRdRetry                        0                       # Number of times read queue was full causing retry
system.mem_ctrls0.numWrRetry                        0                       # Number of times write queue was full causing retry
system.mem_ctrls0.totGap                 1253662471611                       # Total gap between requests
system.mem_ctrls0.readPktSize::0                    0                       # Read request sizes (log2)
system.mem_ctrls0.readPktSize::1                    0                       # Read request sizes (log2)
system.mem_ctrls0.readPktSize::2                    0                       # Read request sizes (log2)
system.mem_ctrls0.readPktSize::3                    0                       # Read request sizes (log2)
system.mem_ctrls0.readPktSize::4                    0                       # Read request sizes (log2)
system.mem_ctrls0.readPktSize::5                    0                       # Read request sizes (log2)
system.mem_ctrls0.readPktSize::6               390970                       # Read request sizes (log2)
system.mem_ctrls0.writePktSize::0                   0                       # Write request sizes (log2)
system.mem_ctrls0.writePktSize::1                   0                       # Write request sizes (log2)
system.mem_ctrls0.writePktSize::2                   0                       # Write request sizes (log2)
system.mem_ctrls0.writePktSize::3                   0                       # Write request sizes (log2)
system.mem_ctrls0.writePktSize::4                   0                       # Write request sizes (log2)
system.mem_ctrls0.writePktSize::5                   0                       # Write request sizes (log2)
system.mem_ctrls0.writePktSize::6              254839                       # Write request sizes (log2)
system.mem_ctrls0.rdQLenPdf::0                 383709                       # What read queue length does an incoming req see
system.mem_ctrls0.rdQLenPdf::1                   6100                       # What read queue length does an incoming req see
system.mem_ctrls0.rdQLenPdf::2                    183                       # What read queue length does an incoming req see
system.mem_ctrls0.rdQLenPdf::3                     18                       # What read queue length does an incoming req see
system.mem_ctrls0.rdQLenPdf::4                      1                       # What read queue length does an incoming req see
system.mem_ctrls0.rdQLenPdf::5                      0                       # What read queue length does an incoming req see
system.mem_ctrls0.rdQLenPdf::6                      0                       # What read queue length does an incoming req see
system.mem_ctrls0.rdQLenPdf::7                      0                       # What read queue length does an incoming req see
system.mem_ctrls0.rdQLenPdf::8                      0                       # What read queue length does an incoming req see
system.mem_ctrls0.rdQLenPdf::9                      0                       # What read queue length does an incoming req see
system.mem_ctrls0.rdQLenPdf::10                     0                       # What read queue length does an incoming req see
system.mem_ctrls0.rdQLenPdf::11                     0                       # What read queue length does an incoming req see
system.mem_ctrls0.rdQLenPdf::12                     0                       # What read queue length does an incoming req see
system.mem_ctrls0.rdQLenPdf::13                     0                       # What read queue length does an incoming req see
system.mem_ctrls0.rdQLenPdf::14                     0                       # What read queue length does an incoming req see
system.mem_ctrls0.rdQLenPdf::15                     0                       # What read queue length does an incoming req see
system.mem_ctrls0.rdQLenPdf::16                     0                       # What read queue length does an incoming req see
system.mem_ctrls0.rdQLenPdf::17                     0                       # What read queue length does an incoming req see
system.mem_ctrls0.rdQLenPdf::18                     0                       # What read queue length does an incoming req see
system.mem_ctrls0.rdQLenPdf::19                     0                       # What read queue length does an incoming req see
system.mem_ctrls0.rdQLenPdf::20                     0                       # What read queue length does an incoming req see
system.mem_ctrls0.rdQLenPdf::21                     0                       # What read queue length does an incoming req see
system.mem_ctrls0.rdQLenPdf::22                     0                       # What read queue length does an incoming req see
system.mem_ctrls0.rdQLenPdf::23                     0                       # What read queue length does an incoming req see
system.mem_ctrls0.rdQLenPdf::24                     0                       # What read queue length does an incoming req see
system.mem_ctrls0.rdQLenPdf::25                     0                       # What read queue length does an incoming req see
system.mem_ctrls0.rdQLenPdf::26                     0                       # What read queue length does an incoming req see
system.mem_ctrls0.rdQLenPdf::27                     0                       # What read queue length does an incoming req see
system.mem_ctrls0.rdQLenPdf::28                     0                       # What read queue length does an incoming req see
system.mem_ctrls0.rdQLenPdf::29                     0                       # What read queue length does an incoming req see
system.mem_ctrls0.rdQLenPdf::30                     0                       # What read queue length does an incoming req see
system.mem_ctrls0.rdQLenPdf::31                     0                       # What read queue length does an incoming req see
system.mem_ctrls0.wrQLenPdf::0                      2                       # What write queue length does an incoming req see
system.mem_ctrls0.wrQLenPdf::1                      2                       # What write queue length does an incoming req see
system.mem_ctrls0.wrQLenPdf::2                      2                       # What write queue length does an incoming req see
system.mem_ctrls0.wrQLenPdf::3                      2                       # What write queue length does an incoming req see
system.mem_ctrls0.wrQLenPdf::4                      2                       # What write queue length does an incoming req see
system.mem_ctrls0.wrQLenPdf::5                      2                       # What write queue length does an incoming req see
system.mem_ctrls0.wrQLenPdf::6                      2                       # What write queue length does an incoming req see
system.mem_ctrls0.wrQLenPdf::7                      2                       # What write queue length does an incoming req see
system.mem_ctrls0.wrQLenPdf::8                      2                       # What write queue length does an incoming req see
system.mem_ctrls0.wrQLenPdf::9                      2                       # What write queue length does an incoming req see
system.mem_ctrls0.wrQLenPdf::10                     2                       # What write queue length does an incoming req see
system.mem_ctrls0.wrQLenPdf::11                     2                       # What write queue length does an incoming req see
system.mem_ctrls0.wrQLenPdf::12                     2                       # What write queue length does an incoming req see
system.mem_ctrls0.wrQLenPdf::13                     2                       # What write queue length does an incoming req see
system.mem_ctrls0.wrQLenPdf::14                     2                       # What write queue length does an incoming req see
system.mem_ctrls0.wrQLenPdf::15                 11349                       # What write queue length does an incoming req see
system.mem_ctrls0.wrQLenPdf::16                 11627                       # What write queue length does an incoming req see
system.mem_ctrls0.wrQLenPdf::17                 14097                       # What write queue length does an incoming req see
system.mem_ctrls0.wrQLenPdf::18                 14459                       # What write queue length does an incoming req see
system.mem_ctrls0.wrQLenPdf::19                 14485                       # What write queue length does an incoming req see
system.mem_ctrls0.wrQLenPdf::20                 14519                       # What write queue length does an incoming req see
system.mem_ctrls0.wrQLenPdf::21                 14529                       # What write queue length does an incoming req see
system.mem_ctrls0.wrQLenPdf::22                 14553                       # What write queue length does an incoming req see
system.mem_ctrls0.wrQLenPdf::23                 14531                       # What write queue length does an incoming req see
system.mem_ctrls0.wrQLenPdf::24                 14550                       # What write queue length does an incoming req see
system.mem_ctrls0.wrQLenPdf::25                 14605                       # What write queue length does an incoming req see
system.mem_ctrls0.wrQLenPdf::26                 14547                       # What write queue length does an incoming req see
system.mem_ctrls0.wrQLenPdf::27                 14511                       # What write queue length does an incoming req see
system.mem_ctrls0.wrQLenPdf::28                 14500                       # What write queue length does an incoming req see
system.mem_ctrls0.wrQLenPdf::29                 14511                       # What write queue length does an incoming req see
system.mem_ctrls0.wrQLenPdf::30                 14502                       # What write queue length does an incoming req see
system.mem_ctrls0.wrQLenPdf::31                 14433                       # What write queue length does an incoming req see
system.mem_ctrls0.wrQLenPdf::32                 14420                       # What write queue length does an incoming req see
system.mem_ctrls0.wrQLenPdf::33                    72                       # What write queue length does an incoming req see
system.mem_ctrls0.wrQLenPdf::34                     9                       # What write queue length does an incoming req see
system.mem_ctrls0.wrQLenPdf::35                     0                       # What write queue length does an incoming req see
system.mem_ctrls0.wrQLenPdf::36                     0                       # What write queue length does an incoming req see
system.mem_ctrls0.wrQLenPdf::37                     0                       # What write queue length does an incoming req see
system.mem_ctrls0.wrQLenPdf::38                     0                       # What write queue length does an incoming req see
system.mem_ctrls0.wrQLenPdf::39                     0                       # What write queue length does an incoming req see
system.mem_ctrls0.wrQLenPdf::40                     0                       # What write queue length does an incoming req see
system.mem_ctrls0.wrQLenPdf::41                     0                       # What write queue length does an incoming req see
system.mem_ctrls0.wrQLenPdf::42                     0                       # What write queue length does an incoming req see
system.mem_ctrls0.wrQLenPdf::43                     0                       # What write queue length does an incoming req see
system.mem_ctrls0.wrQLenPdf::44                     0                       # What write queue length does an incoming req see
system.mem_ctrls0.wrQLenPdf::45                     0                       # What write queue length does an incoming req see
system.mem_ctrls0.wrQLenPdf::46                     0                       # What write queue length does an incoming req see
system.mem_ctrls0.wrQLenPdf::47                     0                       # What write queue length does an incoming req see
system.mem_ctrls0.wrQLenPdf::48                     0                       # What write queue length does an incoming req see
system.mem_ctrls0.wrQLenPdf::49                     0                       # What write queue length does an incoming req see
system.mem_ctrls0.wrQLenPdf::50                     0                       # What write queue length does an incoming req see
system.mem_ctrls0.wrQLenPdf::51                     0                       # What write queue length does an incoming req see
system.mem_ctrls0.wrQLenPdf::52                     0                       # What write queue length does an incoming req see
system.mem_ctrls0.wrQLenPdf::53                     0                       # What write queue length does an incoming req see
system.mem_ctrls0.wrQLenPdf::54                     0                       # What write queue length does an incoming req see
system.mem_ctrls0.wrQLenPdf::55                     0                       # What write queue length does an incoming req see
system.mem_ctrls0.wrQLenPdf::56                     0                       # What write queue length does an incoming req see
system.mem_ctrls0.wrQLenPdf::57                     0                       # What write queue length does an incoming req see
system.mem_ctrls0.wrQLenPdf::58                     0                       # What write queue length does an incoming req see
system.mem_ctrls0.wrQLenPdf::59                     0                       # What write queue length does an incoming req see
system.mem_ctrls0.wrQLenPdf::60                     0                       # What write queue length does an incoming req see
system.mem_ctrls0.wrQLenPdf::61                     0                       # What write queue length does an incoming req see
system.mem_ctrls0.wrQLenPdf::62                     0                       # What write queue length does an incoming req see
system.mem_ctrls0.wrQLenPdf::63                     0                       # What write queue length does an incoming req see
system.mem_ctrls0.bytesPerActivate::samples       413345                       # Bytes accessed per row activation
system.mem_ctrls0.bytesPerActivate::mean    99.841363                       # Bytes accessed per row activation
system.mem_ctrls0.bytesPerActivate::gmean    81.902048                       # Bytes accessed per row activation
system.mem_ctrls0.bytesPerActivate::stdev   103.843077                       # Bytes accessed per row activation
system.mem_ctrls0.bytesPerActivate::0-127       317278     76.76%     76.76% # Bytes accessed per row activation
system.mem_ctrls0.bytesPerActivate::128-255        69117     16.72%     93.48% # Bytes accessed per row activation
system.mem_ctrls0.bytesPerActivate::256-383        15444      3.74%     97.22% # Bytes accessed per row activation
system.mem_ctrls0.bytesPerActivate::384-511         5780      1.40%     98.61% # Bytes accessed per row activation
system.mem_ctrls0.bytesPerActivate::512-639         1832      0.44%     99.06% # Bytes accessed per row activation
system.mem_ctrls0.bytesPerActivate::640-767          951      0.23%     99.29% # Bytes accessed per row activation
system.mem_ctrls0.bytesPerActivate::768-895          697      0.17%     99.46% # Bytes accessed per row activation
system.mem_ctrls0.bytesPerActivate::896-1023          530      0.13%     99.58% # Bytes accessed per row activation
system.mem_ctrls0.bytesPerActivate::1024-1151         1716      0.42%    100.00% # Bytes accessed per row activation
system.mem_ctrls0.bytesPerActivate::total       413345                       # Bytes accessed per row activation
system.mem_ctrls0.rdPerTurnAround::samples        14416                       # Reads before turning the bus around for writes
system.mem_ctrls0.rdPerTurnAround::mean     27.052095                       # Reads before turning the bus around for writes
system.mem_ctrls0.rdPerTurnAround::stdev   241.304692                       # Reads before turning the bus around for writes
system.mem_ctrls0.rdPerTurnAround::0-1023        14415     99.99%     99.99% # Reads before turning the bus around for writes
system.mem_ctrls0.rdPerTurnAround::28672-29695            1      0.01%    100.00% # Reads before turning the bus around for writes
system.mem_ctrls0.rdPerTurnAround::total        14416                       # Reads before turning the bus around for writes
system.mem_ctrls0.wrPerTurnAround::samples        14416                       # Writes before turning the bus around for reads
system.mem_ctrls0.wrPerTurnAround::mean     17.675916                       # Writes before turning the bus around for reads
system.mem_ctrls0.wrPerTurnAround::gmean    17.652360                       # Writes before turning the bus around for reads
system.mem_ctrls0.wrPerTurnAround::stdev     0.898910                       # Writes before turning the bus around for reads
system.mem_ctrls0.wrPerTurnAround::16            2837     19.68%     19.68% # Writes before turning the bus around for reads
system.mem_ctrls0.wrPerTurnAround::17             198      1.37%     21.05% # Writes before turning the bus around for reads
system.mem_ctrls0.wrPerTurnAround::18           10338     71.71%     92.76% # Writes before turning the bus around for reads
system.mem_ctrls0.wrPerTurnAround::19             920      6.38%     99.15% # Writes before turning the bus around for reads
system.mem_ctrls0.wrPerTurnAround::20              99      0.69%     99.83% # Writes before turning the bus around for reads
system.mem_ctrls0.wrPerTurnAround::21              19      0.13%     99.97% # Writes before turning the bus around for reads
system.mem_ctrls0.wrPerTurnAround::22               2      0.01%     99.98% # Writes before turning the bus around for reads
system.mem_ctrls0.wrPerTurnAround::23               1      0.01%     99.99% # Writes before turning the bus around for reads
system.mem_ctrls0.wrPerTurnAround::24               2      0.01%    100.00% # Writes before turning the bus around for reads
system.mem_ctrls0.wrPerTurnAround::total        14416                       # Writes before turning the bus around for reads
system.mem_ctrls0.totQLat                 19365612937                       # Total ticks spent queuing
system.mem_ctrls0.totMemAccLat            26678319187                       # Total ticks spent from burst creation until serviced by the DRAM
system.mem_ctrls0.totBusLat                1950055000                       # Total ticks spent in databus transfers
system.mem_ctrls0.avgQLat                    49654.02                       # Average queueing delay per DRAM burst
system.mem_ctrls0.avgBusLat                   5000.00                       # Average bus latency per DRAM burst
system.mem_ctrls0.avgMemAccLat               68404.02                       # Average memory access latency per DRAM burst
system.mem_ctrls0.avgRdBW                       19.91                       # Average DRAM read bandwidth in MiByte/s
system.mem_ctrls0.avgWrBW                       13.01                       # Average achieved write bandwidth in MiByte/s
system.mem_ctrls0.avgRdBWSys                    19.96                       # Average system read bandwidth in MiByte/s
system.mem_ctrls0.avgWrBWSys                    13.01                       # Average system write bandwidth in MiByte/s
system.mem_ctrls0.peakBW                     12800.00                       # Theoretical peak bandwidth in MiByte/s
system.mem_ctrls0.busUtil                        0.26                       # Data bus utilization in percentage
system.mem_ctrls0.busUtilRead                    0.16                       # Data bus utilization in percentage for reads
system.mem_ctrls0.busUtilWrite                   0.10                       # Data bus utilization in percentage for writes
system.mem_ctrls0.avgRdQLen                      1.00                       # Average read queue length when enqueuing
system.mem_ctrls0.avgWrQLen                     23.07                       # Average write queue length when enqueuing
system.mem_ctrls0.readRowHits                  182315                       # Number of row buffer hits during reads
system.mem_ctrls0.writeRowHits                  49167                       # Number of row buffer hits during writes
system.mem_ctrls0.readRowHitRate                46.75                       # Row buffer hit rate for reads
system.mem_ctrls0.writeRowHitRate               19.29                       # Row buffer hit rate for writes
system.mem_ctrls0.avgGap                   1941227.94                       # Average gap between requests
system.mem_ctrls0.pageHitRate                   35.90                       # Row buffer hit rate, read and write combined
system.mem_ctrls0_0.actEnergy              1489261200                       # Energy for activate commands per rank (pJ)
system.mem_ctrls0_0.preEnergy               791561100                       # Energy for precharge commands per rank (pJ)
system.mem_ctrls0_0.readEnergy             1406979840                       # Energy for read commands per rank (pJ)
system.mem_ctrls0_0.writeEnergy             671015340                       # Energy for write commands per rank (pJ)
system.mem_ctrls0_0.refreshEnergy        46461866880.000008                       # Energy for refresh commands per rank (pJ)
system.mem_ctrls0_0.actBackEnergy         25307019030                       # Energy for active background per rank (pJ)
system.mem_ctrls0_0.preBackEnergy          2238660480                       # Energy for precharge background per rank (pJ)
system.mem_ctrls0_0.actPowerDownEnergy   122268095670                       # Energy for active power-down per rank (pJ)
system.mem_ctrls0_0.prePowerDownEnergy    61596012000                       # Energy for precharge power-down per rank (pJ)
system.mem_ctrls0_0.selfRefreshEnergy    190854694095                       # Energy for self refresh per rank (pJ)
system.mem_ctrls0_0.totalEnergy          453101748195                       # Total energy per rank (pJ)
system.mem_ctrls0_0.averagePower           361.397794                       # Core power per rank (mW)
system.mem_ctrls0_0.totalIdleTime        1192298011303                       # Total Idle time Per DRAM Rank
system.mem_ctrls0_0.memoryStateTime::IDLE   3957330771                       # Time in different power states
system.mem_ctrls0_0.memoryStateTime::REF  19737290000                       # Time in different power states
system.mem_ctrls0_0.memoryStateTime::SREF 763845381409                       # Time in different power states
system.mem_ctrls0_0.memoryStateTime::PRE_PDN 160407272925                       # Time in different power states
system.mem_ctrls0_0.memoryStateTime::ACT  37669293908                       # Time in different power states
system.mem_ctrls0_0.memoryStateTime::ACT_PDN 268131385896                       # Time in different power states
system.mem_ctrls0_1.actEnergy              1462022100                       # Energy for activate commands per rank (pJ)
system.mem_ctrls0_1.preEnergy               777083175                       # Energy for precharge commands per rank (pJ)
system.mem_ctrls0_1.readEnergy             1377698700                       # Energy for read commands per rank (pJ)
system.mem_ctrls0_1.writeEnergy             659124180                       # Energy for write commands per rank (pJ)
system.mem_ctrls0_1.refreshEnergy        47010740400.000008                       # Energy for refresh commands per rank (pJ)
system.mem_ctrls0_1.actBackEnergy         25524936870                       # Energy for active background per rank (pJ)
system.mem_ctrls0_1.preBackEnergy          2254068960                       # Energy for precharge background per rank (pJ)
system.mem_ctrls0_1.actPowerDownEnergy   123595170810                       # Energy for active power-down per rank (pJ)
system.mem_ctrls0_1.prePowerDownEnergy    62560241760                       # Energy for precharge power-down per rank (pJ)
system.mem_ctrls0_1.selfRefreshEnergy    189506637705                       # Energy for self refresh per rank (pJ)
system.mem_ctrls0_1.totalEnergy          454743731640                       # Total energy per rank (pJ)
system.mem_ctrls0_1.averagePower           362.707455                       # Core power per rank (mW)
system.mem_ctrls0_1.totalIdleTime        1191618682720                       # Total Idle time Per DRAM Rank
system.mem_ctrls0_1.memoryStateTime::IDLE   3978537230                       # Time in different power states
system.mem_ctrls0_1.memoryStateTime::REF  19969962000                       # Time in different power states
system.mem_ctrls0_1.memoryStateTime::SREF 757907295159                       # Time in different power states
system.mem_ctrls0_1.memoryStateTime::PRE_PDN 162917087773                       # Time in different power states
system.mem_ctrls0_1.memoryStateTime::ACT  37932978959                       # Time in different power states
system.mem_ctrls0_1.memoryStateTime::ACT_PDN 271042093788                       # Time in different power states
system.mem_ctrls1.pwrStateResidencyTicks::UNDEFINED 191305057869909                       # Cumulative time (in ticks) in various power states
system.mem_ctrls1.bytes_read::cpu.inst            128                       # Number of bytes read from this memory
system.mem_ctrls1.bytes_read::cpu.data             64                       # Number of bytes read from this memory
system.mem_ctrls1.bytes_read::switch_cpus.inst        14144                       # Number of bytes read from this memory
system.mem_ctrls1.bytes_read::switch_cpus.data     20528832                       # Number of bytes read from this memory
system.mem_ctrls1.bytes_read::switch_cpus_1.inst          768                       # Number of bytes read from this memory
system.mem_ctrls1.bytes_read::switch_cpus_1.data      4460608                       # Number of bytes read from this memory
system.mem_ctrls1.bytes_read::total          25004544                       # Number of bytes read from this memory
system.mem_ctrls1.bytes_inst_read::cpu.inst          128                       # Number of instructions bytes read from this memory
system.mem_ctrls1.bytes_inst_read::switch_cpus.inst        14144                       # Number of instructions bytes read from this memory
system.mem_ctrls1.bytes_inst_read::switch_cpus_1.inst          768                       # Number of instructions bytes read from this memory
system.mem_ctrls1.bytes_inst_read::total        15040                       # Number of instructions bytes read from this memory
system.mem_ctrls1.bytes_written::writebacks     16316416                       # Number of bytes written to this memory
system.mem_ctrls1.bytes_written::total       16316416                       # Number of bytes written to this memory
system.mem_ctrls1.num_reads::cpu.inst               2                       # Number of read requests responded to by this memory
system.mem_ctrls1.num_reads::cpu.data               1                       # Number of read requests responded to by this memory
system.mem_ctrls1.num_reads::switch_cpus.inst          221                       # Number of read requests responded to by this memory
system.mem_ctrls1.num_reads::switch_cpus.data       320763                       # Number of read requests responded to by this memory
system.mem_ctrls1.num_reads::switch_cpus_1.inst           12                       # Number of read requests responded to by this memory
system.mem_ctrls1.num_reads::switch_cpus_1.data        69697                       # Number of read requests responded to by this memory
system.mem_ctrls1.num_reads::total             390696                       # Number of read requests responded to by this memory
system.mem_ctrls1.num_writes::writebacks       254944                       # Number of write requests responded to by this memory
system.mem_ctrls1.num_writes::total            254944                       # Number of write requests responded to by this memory
system.mem_ctrls1.bw_read::cpu.inst               102                       # Total read bandwidth from this memory (bytes/s)
system.mem_ctrls1.bw_read::cpu.data                51                       # Total read bandwidth from this memory (bytes/s)
system.mem_ctrls1.bw_read::switch_cpus.inst        11281                       # Total read bandwidth from this memory (bytes/s)
system.mem_ctrls1.bw_read::switch_cpus.data     16373970                       # Total read bandwidth from this memory (bytes/s)
system.mem_ctrls1.bw_read::switch_cpus_1.inst          613                       # Total read bandwidth from this memory (bytes/s)
system.mem_ctrls1.bw_read::switch_cpus_1.data      3557819                       # Total read bandwidth from this memory (bytes/s)
system.mem_ctrls1.bw_read::total             19943836                       # Total read bandwidth from this memory (bytes/s)
system.mem_ctrls1.bw_inst_read::cpu.inst          102                       # Instruction read bandwidth from this memory (bytes/s)
system.mem_ctrls1.bw_inst_read::switch_cpus.inst        11281                       # Instruction read bandwidth from this memory (bytes/s)
system.mem_ctrls1.bw_inst_read::switch_cpus_1.inst          613                       # Instruction read bandwidth from this memory (bytes/s)
system.mem_ctrls1.bw_inst_read::total           11996                       # Instruction read bandwidth from this memory (bytes/s)
system.mem_ctrls1.bw_write::writebacks       13014112                       # Write bandwidth from this memory (bytes/s)
system.mem_ctrls1.bw_write::total            13014112                       # Write bandwidth from this memory (bytes/s)
system.mem_ctrls1.bw_total::writebacks       13014112                       # Total bandwidth to/from this memory (bytes/s)
system.mem_ctrls1.bw_total::cpu.inst              102                       # Total bandwidth to/from this memory (bytes/s)
system.mem_ctrls1.bw_total::cpu.data               51                       # Total bandwidth to/from this memory (bytes/s)
system.mem_ctrls1.bw_total::switch_cpus.inst        11281                       # Total bandwidth to/from this memory (bytes/s)
system.mem_ctrls1.bw_total::switch_cpus.data     16373970                       # Total bandwidth to/from this memory (bytes/s)
system.mem_ctrls1.bw_total::switch_cpus_1.inst          613                       # Total bandwidth to/from this memory (bytes/s)
system.mem_ctrls1.bw_total::switch_cpus_1.data      3557819                       # Total bandwidth to/from this memory (bytes/s)
system.mem_ctrls1.bw_total::total            32957948                       # Total bandwidth to/from this memory (bytes/s)
system.mem_ctrls1.readReqs                     390696                       # Number of read requests accepted
system.mem_ctrls1.writeReqs                    254944                       # Number of write requests accepted
system.mem_ctrls1.readBursts                   390696                       # Number of DRAM read bursts, including those serviced by the write queue
system.mem_ctrls1.writeBursts                  254944                       # Number of DRAM write bursts, including those merged in the write queue
system.mem_ctrls1.bytesReadDRAM              24945600                       # Total number of bytes read from DRAM
system.mem_ctrls1.bytesReadWrQ                  58944                       # Total number of bytes read from write queue
system.mem_ctrls1.bytesWritten               16314816                       # Total number of bytes written to DRAM
system.mem_ctrls1.bytesReadSys               25004544                       # Total read bytes from the system interface side
system.mem_ctrls1.bytesWrittenSys            16316416                       # Total written bytes from the system interface side
system.mem_ctrls1.servicedByWrQ                   921                       # Number of DRAM read bursts serviced by the write queue
system.mem_ctrls1.mergedWrBursts                    2                       # Number of DRAM write bursts merged with an existing one
system.mem_ctrls1.neitherReadNorWriteReqs            0                       # Number of requests that are neither read nor write
system.mem_ctrls1.perBankRdBursts::0            25509                       # Per bank write bursts
system.mem_ctrls1.perBankRdBursts::1            24897                       # Per bank write bursts
system.mem_ctrls1.perBankRdBursts::2            25842                       # Per bank write bursts
system.mem_ctrls1.perBankRdBursts::3            25180                       # Per bank write bursts
system.mem_ctrls1.perBankRdBursts::4            22931                       # Per bank write bursts
system.mem_ctrls1.perBankRdBursts::5            23721                       # Per bank write bursts
system.mem_ctrls1.perBankRdBursts::6            23999                       # Per bank write bursts
system.mem_ctrls1.perBankRdBursts::7            24802                       # Per bank write bursts
system.mem_ctrls1.perBankRdBursts::8            25319                       # Per bank write bursts
system.mem_ctrls1.perBankRdBursts::9            23831                       # Per bank write bursts
system.mem_ctrls1.perBankRdBursts::10           24160                       # Per bank write bursts
system.mem_ctrls1.perBankRdBursts::11           23685                       # Per bank write bursts
system.mem_ctrls1.perBankRdBursts::12           22725                       # Per bank write bursts
system.mem_ctrls1.perBankRdBursts::13           23506                       # Per bank write bursts
system.mem_ctrls1.perBankRdBursts::14           23956                       # Per bank write bursts
system.mem_ctrls1.perBankRdBursts::15           25712                       # Per bank write bursts
system.mem_ctrls1.perBankWrBursts::0            16702                       # Per bank write bursts
system.mem_ctrls1.perBankWrBursts::1            16447                       # Per bank write bursts
system.mem_ctrls1.perBankWrBursts::2            16769                       # Per bank write bursts
system.mem_ctrls1.perBankWrBursts::3            16258                       # Per bank write bursts
system.mem_ctrls1.perBankWrBursts::4            14498                       # Per bank write bursts
system.mem_ctrls1.perBankWrBursts::5            15540                       # Per bank write bursts
system.mem_ctrls1.perBankWrBursts::6            15908                       # Per bank write bursts
system.mem_ctrls1.perBankWrBursts::7            16402                       # Per bank write bursts
system.mem_ctrls1.perBankWrBursts::8            16599                       # Per bank write bursts
system.mem_ctrls1.perBankWrBursts::9            15660                       # Per bank write bursts
system.mem_ctrls1.perBankWrBursts::10           15698                       # Per bank write bursts
system.mem_ctrls1.perBankWrBursts::11           15541                       # Per bank write bursts
system.mem_ctrls1.perBankWrBursts::12           14977                       # Per bank write bursts
system.mem_ctrls1.perBankWrBursts::13           15247                       # Per bank write bursts
system.mem_ctrls1.perBankWrBursts::14           15772                       # Per bank write bursts
system.mem_ctrls1.perBankWrBursts::15           16901                       # Per bank write bursts
system.mem_ctrls1.numRdRetry                        0                       # Number of times read queue was full causing retry
system.mem_ctrls1.numWrRetry                        0                       # Number of times write queue was full causing retry
system.mem_ctrls1.totGap                 1253646401697                       # Total gap between requests
system.mem_ctrls1.readPktSize::0                    0                       # Read request sizes (log2)
system.mem_ctrls1.readPktSize::1                    0                       # Read request sizes (log2)
system.mem_ctrls1.readPktSize::2                    0                       # Read request sizes (log2)
system.mem_ctrls1.readPktSize::3                    0                       # Read request sizes (log2)
system.mem_ctrls1.readPktSize::4                    0                       # Read request sizes (log2)
system.mem_ctrls1.readPktSize::5                    0                       # Read request sizes (log2)
system.mem_ctrls1.readPktSize::6               390696                       # Read request sizes (log2)
system.mem_ctrls1.writePktSize::0                   0                       # Write request sizes (log2)
system.mem_ctrls1.writePktSize::1                   0                       # Write request sizes (log2)
system.mem_ctrls1.writePktSize::2                   0                       # Write request sizes (log2)
system.mem_ctrls1.writePktSize::3                   0                       # Write request sizes (log2)
system.mem_ctrls1.writePktSize::4                   0                       # Write request sizes (log2)
system.mem_ctrls1.writePktSize::5                   0                       # Write request sizes (log2)
system.mem_ctrls1.writePktSize::6              254944                       # Write request sizes (log2)
system.mem_ctrls1.rdQLenPdf::0                 383454                       # What read queue length does an incoming req see
system.mem_ctrls1.rdQLenPdf::1                   6108                       # What read queue length does an incoming req see
system.mem_ctrls1.rdQLenPdf::2                    182                       # What read queue length does an incoming req see
system.mem_ctrls1.rdQLenPdf::3                     31                       # What read queue length does an incoming req see
system.mem_ctrls1.rdQLenPdf::4                      0                       # What read queue length does an incoming req see
system.mem_ctrls1.rdQLenPdf::5                      0                       # What read queue length does an incoming req see
system.mem_ctrls1.rdQLenPdf::6                      0                       # What read queue length does an incoming req see
system.mem_ctrls1.rdQLenPdf::7                      0                       # What read queue length does an incoming req see
system.mem_ctrls1.rdQLenPdf::8                      0                       # What read queue length does an incoming req see
system.mem_ctrls1.rdQLenPdf::9                      0                       # What read queue length does an incoming req see
system.mem_ctrls1.rdQLenPdf::10                     0                       # What read queue length does an incoming req see
system.mem_ctrls1.rdQLenPdf::11                     0                       # What read queue length does an incoming req see
system.mem_ctrls1.rdQLenPdf::12                     0                       # What read queue length does an incoming req see
system.mem_ctrls1.rdQLenPdf::13                     0                       # What read queue length does an incoming req see
system.mem_ctrls1.rdQLenPdf::14                     0                       # What read queue length does an incoming req see
system.mem_ctrls1.rdQLenPdf::15                     0                       # What read queue length does an incoming req see
system.mem_ctrls1.rdQLenPdf::16                     0                       # What read queue length does an incoming req see
system.mem_ctrls1.rdQLenPdf::17                     0                       # What read queue length does an incoming req see
system.mem_ctrls1.rdQLenPdf::18                     0                       # What read queue length does an incoming req see
system.mem_ctrls1.rdQLenPdf::19                     0                       # What read queue length does an incoming req see
system.mem_ctrls1.rdQLenPdf::20                     0                       # What read queue length does an incoming req see
system.mem_ctrls1.rdQLenPdf::21                     0                       # What read queue length does an incoming req see
system.mem_ctrls1.rdQLenPdf::22                     0                       # What read queue length does an incoming req see
system.mem_ctrls1.rdQLenPdf::23                     0                       # What read queue length does an incoming req see
system.mem_ctrls1.rdQLenPdf::24                     0                       # What read queue length does an incoming req see
system.mem_ctrls1.rdQLenPdf::25                     0                       # What read queue length does an incoming req see
system.mem_ctrls1.rdQLenPdf::26                     0                       # What read queue length does an incoming req see
system.mem_ctrls1.rdQLenPdf::27                     0                       # What read queue length does an incoming req see
system.mem_ctrls1.rdQLenPdf::28                     0                       # What read queue length does an incoming req see
system.mem_ctrls1.rdQLenPdf::29                     0                       # What read queue length does an incoming req see
system.mem_ctrls1.rdQLenPdf::30                     0                       # What read queue length does an incoming req see
system.mem_ctrls1.rdQLenPdf::31                     0                       # What read queue length does an incoming req see
system.mem_ctrls1.wrQLenPdf::0                      2                       # What write queue length does an incoming req see
system.mem_ctrls1.wrQLenPdf::1                      2                       # What write queue length does an incoming req see
system.mem_ctrls1.wrQLenPdf::2                      2                       # What write queue length does an incoming req see
system.mem_ctrls1.wrQLenPdf::3                      2                       # What write queue length does an incoming req see
system.mem_ctrls1.wrQLenPdf::4                      2                       # What write queue length does an incoming req see
system.mem_ctrls1.wrQLenPdf::5                      2                       # What write queue length does an incoming req see
system.mem_ctrls1.wrQLenPdf::6                      2                       # What write queue length does an incoming req see
system.mem_ctrls1.wrQLenPdf::7                      2                       # What write queue length does an incoming req see
system.mem_ctrls1.wrQLenPdf::8                      2                       # What write queue length does an incoming req see
system.mem_ctrls1.wrQLenPdf::9                      2                       # What write queue length does an incoming req see
system.mem_ctrls1.wrQLenPdf::10                     2                       # What write queue length does an incoming req see
system.mem_ctrls1.wrQLenPdf::11                     2                       # What write queue length does an incoming req see
system.mem_ctrls1.wrQLenPdf::12                     2                       # What write queue length does an incoming req see
system.mem_ctrls1.wrQLenPdf::13                     2                       # What write queue length does an incoming req see
system.mem_ctrls1.wrQLenPdf::14                     2                       # What write queue length does an incoming req see
system.mem_ctrls1.wrQLenPdf::15                 11310                       # What write queue length does an incoming req see
system.mem_ctrls1.wrQLenPdf::16                 11526                       # What write queue length does an incoming req see
system.mem_ctrls1.wrQLenPdf::17                 14119                       # What write queue length does an incoming req see
system.mem_ctrls1.wrQLenPdf::18                 14476                       # What write queue length does an incoming req see
system.mem_ctrls1.wrQLenPdf::19                 14515                       # What write queue length does an incoming req see
system.mem_ctrls1.wrQLenPdf::20                 14525                       # What write queue length does an incoming req see
system.mem_ctrls1.wrQLenPdf::21                 14545                       # What write queue length does an incoming req see
system.mem_ctrls1.wrQLenPdf::22                 14560                       # What write queue length does an incoming req see
system.mem_ctrls1.wrQLenPdf::23                 14582                       # What write queue length does an incoming req see
system.mem_ctrls1.wrQLenPdf::24                 14577                       # What write queue length does an incoming req see
system.mem_ctrls1.wrQLenPdf::25                 14650                       # What write queue length does an incoming req see
system.mem_ctrls1.wrQLenPdf::26                 14558                       # What write queue length does an incoming req see
system.mem_ctrls1.wrQLenPdf::27                 14521                       # What write queue length does an incoming req see
system.mem_ctrls1.wrQLenPdf::28                 14501                       # What write queue length does an incoming req see
system.mem_ctrls1.wrQLenPdf::29                 14497                       # What write queue length does an incoming req see
system.mem_ctrls1.wrQLenPdf::30                 14505                       # What write queue length does an incoming req see
system.mem_ctrls1.wrQLenPdf::31                 14444                       # What write queue length does an incoming req see
system.mem_ctrls1.wrQLenPdf::32                 14428                       # What write queue length does an incoming req see
system.mem_ctrls1.wrQLenPdf::33                    61                       # What write queue length does an incoming req see
system.mem_ctrls1.wrQLenPdf::34                    12                       # What write queue length does an incoming req see
system.mem_ctrls1.wrQLenPdf::35                     0                       # What write queue length does an incoming req see
system.mem_ctrls1.wrQLenPdf::36                     0                       # What write queue length does an incoming req see
system.mem_ctrls1.wrQLenPdf::37                     0                       # What write queue length does an incoming req see
system.mem_ctrls1.wrQLenPdf::38                     0                       # What write queue length does an incoming req see
system.mem_ctrls1.wrQLenPdf::39                     0                       # What write queue length does an incoming req see
system.mem_ctrls1.wrQLenPdf::40                     0                       # What write queue length does an incoming req see
system.mem_ctrls1.wrQLenPdf::41                     0                       # What write queue length does an incoming req see
system.mem_ctrls1.wrQLenPdf::42                     0                       # What write queue length does an incoming req see
system.mem_ctrls1.wrQLenPdf::43                     0                       # What write queue length does an incoming req see
system.mem_ctrls1.wrQLenPdf::44                     0                       # What write queue length does an incoming req see
system.mem_ctrls1.wrQLenPdf::45                     0                       # What write queue length does an incoming req see
system.mem_ctrls1.wrQLenPdf::46                     0                       # What write queue length does an incoming req see
system.mem_ctrls1.wrQLenPdf::47                     0                       # What write queue length does an incoming req see
system.mem_ctrls1.wrQLenPdf::48                     0                       # What write queue length does an incoming req see
system.mem_ctrls1.wrQLenPdf::49                     0                       # What write queue length does an incoming req see
system.mem_ctrls1.wrQLenPdf::50                     0                       # What write queue length does an incoming req see
system.mem_ctrls1.wrQLenPdf::51                     0                       # What write queue length does an incoming req see
system.mem_ctrls1.wrQLenPdf::52                     0                       # What write queue length does an incoming req see
system.mem_ctrls1.wrQLenPdf::53                     0                       # What write queue length does an incoming req see
system.mem_ctrls1.wrQLenPdf::54                     0                       # What write queue length does an incoming req see
system.mem_ctrls1.wrQLenPdf::55                     0                       # What write queue length does an incoming req see
system.mem_ctrls1.wrQLenPdf::56                     0                       # What write queue length does an incoming req see
system.mem_ctrls1.wrQLenPdf::57                     0                       # What write queue length does an incoming req see
system.mem_ctrls1.wrQLenPdf::58                     0                       # What write queue length does an incoming req see
system.mem_ctrls1.wrQLenPdf::59                     0                       # What write queue length does an incoming req see
system.mem_ctrls1.wrQLenPdf::60                     0                       # What write queue length does an incoming req see
system.mem_ctrls1.wrQLenPdf::61                     0                       # What write queue length does an incoming req see
system.mem_ctrls1.wrQLenPdf::62                     0                       # What write queue length does an incoming req see
system.mem_ctrls1.wrQLenPdf::63                     0                       # What write queue length does an incoming req see
system.mem_ctrls1.bytesPerActivate::samples       413587                       # Bytes accessed per row activation
system.mem_ctrls1.bytesPerActivate::mean    99.762362                       # Bytes accessed per row activation
system.mem_ctrls1.bytesPerActivate::gmean    81.893323                       # Bytes accessed per row activation
system.mem_ctrls1.bytesPerActivate::stdev   103.633296                       # Bytes accessed per row activation
system.mem_ctrls1.bytesPerActivate::0-127       317276     76.71%     76.71% # Bytes accessed per row activation
system.mem_ctrls1.bytesPerActivate::128-255        69408     16.78%     93.50% # Bytes accessed per row activation
system.mem_ctrls1.bytesPerActivate::256-383        15572      3.77%     97.26% # Bytes accessed per row activation
system.mem_ctrls1.bytesPerActivate::384-511         5613      1.36%     98.62% # Bytes accessed per row activation
system.mem_ctrls1.bytesPerActivate::512-639         1826      0.44%     99.06% # Bytes accessed per row activation
system.mem_ctrls1.bytesPerActivate::640-767          942      0.23%     99.29% # Bytes accessed per row activation
system.mem_ctrls1.bytesPerActivate::768-895          696      0.17%     99.46% # Bytes accessed per row activation
system.mem_ctrls1.bytesPerActivate::896-1023          565      0.14%     99.59% # Bytes accessed per row activation
system.mem_ctrls1.bytesPerActivate::1024-1151         1689      0.41%    100.00% # Bytes accessed per row activation
system.mem_ctrls1.bytesPerActivate::total       413587                       # Bytes accessed per row activation
system.mem_ctrls1.rdPerTurnAround::samples        14425                       # Reads before turning the bus around for writes
system.mem_ctrls1.rdPerTurnAround::mean     27.019064                       # Reads before turning the bus around for writes
system.mem_ctrls1.rdPerTurnAround::stdev   239.532996                       # Reads before turning the bus around for writes
system.mem_ctrls1.rdPerTurnAround::0-1023        14424     99.99%     99.99% # Reads before turning the bus around for writes
system.mem_ctrls1.rdPerTurnAround::28672-29695            1      0.01%    100.00% # Reads before turning the bus around for writes
system.mem_ctrls1.rdPerTurnAround::total        14425                       # Reads before turning the bus around for writes
system.mem_ctrls1.wrPerTurnAround::samples        14425                       # Writes before turning the bus around for reads
system.mem_ctrls1.wrPerTurnAround::mean     17.672028                       # Writes before turning the bus around for reads
system.mem_ctrls1.wrPerTurnAround::gmean    17.647690                       # Writes before turning the bus around for reads
system.mem_ctrls1.wrPerTurnAround::stdev     0.914213                       # Writes before turning the bus around for reads
system.mem_ctrls1.wrPerTurnAround::16            2923     20.26%     20.26% # Writes before turning the bus around for reads
system.mem_ctrls1.wrPerTurnAround::17             159      1.10%     21.37% # Writes before turning the bus around for reads
system.mem_ctrls1.wrPerTurnAround::18           10258     71.11%     92.48% # Writes before turning the bus around for reads
system.mem_ctrls1.wrPerTurnAround::19             934      6.47%     98.95% # Writes before turning the bus around for reads
system.mem_ctrls1.wrPerTurnAround::20             124      0.86%     99.81% # Writes before turning the bus around for reads
system.mem_ctrls1.wrPerTurnAround::21              18      0.12%     99.94% # Writes before turning the bus around for reads
system.mem_ctrls1.wrPerTurnAround::22               8      0.06%     99.99% # Writes before turning the bus around for reads
system.mem_ctrls1.wrPerTurnAround::24               1      0.01%    100.00% # Writes before turning the bus around for reads
system.mem_ctrls1.wrPerTurnAround::total        14425                       # Writes before turning the bus around for reads
system.mem_ctrls1.totQLat                 19363280995                       # Total ticks spent queuing
system.mem_ctrls1.totMemAccLat            26671562245                       # Total ticks spent from burst creation until serviced by the DRAM
system.mem_ctrls1.totBusLat                1948875000                       # Total ticks spent in databus transfers
system.mem_ctrls1.avgQLat                    49678.10                       # Average queueing delay per DRAM burst
system.mem_ctrls1.avgBusLat                   5000.00                       # Average bus latency per DRAM burst
system.mem_ctrls1.avgMemAccLat               68428.10                       # Average memory access latency per DRAM burst
system.mem_ctrls1.avgRdBW                       19.90                       # Average DRAM read bandwidth in MiByte/s
system.mem_ctrls1.avgWrBW                       13.01                       # Average achieved write bandwidth in MiByte/s
system.mem_ctrls1.avgRdBWSys                    19.94                       # Average system read bandwidth in MiByte/s
system.mem_ctrls1.avgWrBWSys                    13.01                       # Average system write bandwidth in MiByte/s
system.mem_ctrls1.peakBW                     12800.00                       # Theoretical peak bandwidth in MiByte/s
system.mem_ctrls1.busUtil                        0.26                       # Data bus utilization in percentage
system.mem_ctrls1.busUtilRead                    0.16                       # Data bus utilization in percentage for reads
system.mem_ctrls1.busUtilWrite                   0.10                       # Data bus utilization in percentage for writes
system.mem_ctrls1.avgRdQLen                      1.00                       # Average read queue length when enqueuing
system.mem_ctrls1.avgWrQLen                     23.43                       # Average write queue length when enqueuing
system.mem_ctrls1.readRowHits                  182132                       # Number of row buffer hits during reads
system.mem_ctrls1.writeRowHits                  48975                       # Number of row buffer hits during writes
system.mem_ctrls1.readRowHitRate                46.73                       # Row buffer hit rate for reads
system.mem_ctrls1.writeRowHitRate               19.21                       # Row buffer hit rate for writes
system.mem_ctrls1.avgGap                   1941711.17                       # Average gap between requests
system.mem_ctrls1.pageHitRate                   35.85                       # Row buffer hit rate, read and write combined
system.mem_ctrls1_0.actEnergy              1487818920                       # Energy for activate commands per rank (pJ)
system.mem_ctrls1_0.preEnergy               790794510                       # Energy for precharge commands per rank (pJ)
system.mem_ctrls1_0.readEnergy             1405730340                       # Energy for read commands per rank (pJ)
system.mem_ctrls1_0.writeEnergy             670895280                       # Energy for write commands per rank (pJ)
system.mem_ctrls1_0.refreshEnergy        46400402880.000008                       # Energy for refresh commands per rank (pJ)
system.mem_ctrls1_0.actBackEnergy         25286605620                       # Energy for active background per rank (pJ)
system.mem_ctrls1_0.preBackEnergy          2236664160                       # Energy for precharge background per rank (pJ)
system.mem_ctrls1_0.actPowerDownEnergy   122179999890                       # Energy for active power-down per rank (pJ)
system.mem_ctrls1_0.prePowerDownEnergy    61464911040                       # Energy for precharge power-down per rank (pJ)
system.mem_ctrls1_0.selfRefreshEnergy    190979755905                       # Energy for self refresh per rank (pJ)
system.mem_ctrls1_0.totalEnergy          452917600875                       # Total energy per rank (pJ)
system.mem_ctrls1_0.averagePower           361.250916                       # Core power per rank (mW)
system.mem_ctrls1_0.totalIdleTime        1192303332407                       # Total Idle time Per DRAM Rank
system.mem_ctrls1_0.memoryStateTime::IDLE   3949546651                       # Time in different power states
system.mem_ctrls1_0.memoryStateTime::REF  19710948000                       # Time in different power states
system.mem_ctrls1_0.memoryStateTime::SREF 764435499909                       # Time in different power states
system.mem_ctrls1_0.memoryStateTime::PRE_PDN 160064254867                       # Time in different power states
system.mem_ctrls1_0.memoryStateTime::ACT  37650161909                       # Time in different power states
system.mem_ctrls1_0.memoryStateTime::ACT_PDN 267937543573                       # Time in different power states
system.mem_ctrls1_1.actEnergy              1465192260                       # Energy for activate commands per rank (pJ)
system.mem_ctrls1_1.preEnergy               778768155                       # Energy for precharge commands per rank (pJ)
system.mem_ctrls1_1.readEnergy             1377263160                       # Energy for read commands per rank (pJ)
system.mem_ctrls1_1.writeEnergy             659781900                       # Energy for write commands per rank (pJ)
system.mem_ctrls1_1.refreshEnergy        47038399200.000008                       # Energy for refresh commands per rank (pJ)
system.mem_ctrls1_1.actBackEnergy         25514851860                       # Energy for active background per rank (pJ)
system.mem_ctrls1_1.preBackEnergy          2237059200                       # Energy for precharge background per rank (pJ)
system.mem_ctrls1_1.actPowerDownEnergy   123644836620                       # Energy for active power-down per rank (pJ)
system.mem_ctrls1_1.prePowerDownEnergy    62873997120                       # Energy for precharge power-down per rank (pJ)
system.mem_ctrls1_1.selfRefreshEnergy    189261714765                       # Energy for self refresh per rank (pJ)
system.mem_ctrls1_1.totalEnergy          454870360110                       # Total energy per rank (pJ)
system.mem_ctrls1_1.averagePower           362.808454                       # Core power per rank (mW)
system.mem_ctrls1_1.totalIdleTime        1191673509722                       # Total Idle time Per DRAM Rank
system.mem_ctrls1_1.memoryStateTime::IDLE   3935751024                       # Time in different power states
system.mem_ctrls1_1.memoryStateTime::REF  19981404000                       # Time in different power states
system.mem_ctrls1_1.memoryStateTime::SREF 757042146159                       # Time in different power states
system.mem_ctrls1_1.memoryStateTime::PRE_PDN 163734073142                       # Time in different power states
system.mem_ctrls1_1.memoryStateTime::ACT  37902268486                       # Time in different power states
system.mem_ctrls1_1.memoryStateTime::ACT_PDN 271152312098                       # Time in different power states
system.pwrStateResidencyTicks::UNDEFINED 191305057869909                       # Cumulative time (in ticks) in various power states
system.cpu.branchPred.lookups                       4                       # Number of BP lookups
system.cpu.branchPred.condPredicted                 2                       # Number of conditional branches predicted
system.cpu.branchPred.condIncorrect                 2                       # Number of conditional branches incorrect
system.cpu.branchPred.BTBLookups                    2                       # Number of BTB lookups
system.cpu.branchPred.BTBHits                       0                       # Number of BTB hits
system.cpu.branchPred.BTBCorrect                    0                       # Number of correct BTB predictions (this stat may not work properly.
system.cpu.branchPred.BTBHitPct              0.000000                       # BTB Hit Percentage
system.cpu.branchPred.usedRAS                       0                       # Number of times the RAS was used to get a target.
system.cpu.branchPred.RASInCorrect                  0                       # Number of incorrect RAS predictions.
system.cpu.branchPred.indirectLookups               0                       # Number of indirect predictor lookups.
system.cpu.branchPred.indirectHits                  0                       # Number of indirect target hits.
system.cpu.branchPred.indirectMisses                0                       # Number of indirect misses.
system.cpu.branchPredindirectMispredicted            0                       # Number of mispredicted indirect branches.
system.cpu_voltage_domain.voltage                   1                       # Voltage in Volts
system.cpu_clk_domain.clock                       333                       # Clock period in ticks
system.cpu.dtb.fetch_hits                           0                       # ITB hits
system.cpu.dtb.fetch_misses                         0                       # ITB misses
system.cpu.dtb.fetch_acv                            0                       # ITB acv
system.cpu.dtb.fetch_accesses                       0                       # ITB accesses
system.cpu.dtb.read_hits                            6                       # DTB read hits
system.cpu.dtb.read_misses                          0                       # DTB read misses
system.cpu.dtb.read_acv                             0                       # DTB read access violations
system.cpu.dtb.read_accesses                        6                       # DTB read accesses
system.cpu.dtb.write_hits                           1                       # DTB write hits
system.cpu.dtb.write_misses                         0                       # DTB write misses
system.cpu.dtb.write_acv                            0                       # DTB write access violations
system.cpu.dtb.write_accesses                       1                       # DTB write accesses
system.cpu.dtb.data_hits                            7                       # DTB hits
system.cpu.dtb.data_misses                          0                       # DTB misses
system.cpu.dtb.data_acv                             0                       # DTB access violations
system.cpu.dtb.data_accesses                        7                       # DTB accesses
system.cpu.itb.fetch_hits                           7                       # ITB hits
system.cpu.itb.fetch_misses                         0                       # ITB misses
system.cpu.itb.fetch_acv                            0                       # ITB acv
system.cpu.itb.fetch_accesses                       7                       # ITB accesses
system.cpu.itb.read_hits                            0                       # DTB read hits
system.cpu.itb.read_misses                          0                       # DTB read misses
system.cpu.itb.read_acv                             0                       # DTB read access violations
system.cpu.itb.read_accesses                        0                       # DTB read accesses
system.cpu.itb.write_hits                           0                       # DTB write hits
system.cpu.itb.write_misses                         0                       # DTB write misses
system.cpu.itb.write_acv                            0                       # DTB write access violations
system.cpu.itb.write_accesses                       0                       # DTB write accesses
system.cpu.itb.data_hits                            0                       # DTB hits
system.cpu.itb.data_misses                          0                       # DTB misses
system.cpu.itb.data_acv                             0                       # DTB access violations
system.cpu.itb.data_accesses                        0                       # DTB accesses
system.cpu.workload.num_syscalls                    0                       # Number of system calls
system.cpu.pwrStateResidencyTicks::ON    1253747954909                       # Cumulative time (in ticks) in various power states
system.cpu.numCycles                             1091                       # number of cpu cycles simulated
system.cpu.numWorkItemsStarted                      0                       # number of work items this cpu started
system.cpu.numWorkItemsCompleted                    0                       # number of work items this cpu completed
system.cpu.fetch.icacheStallCycles                 50                       # Number of cycles fetch is stalled on an Icache miss
system.cpu.fetch.Insts                             19                       # Number of instructions fetch has processed
system.cpu.fetch.Branches                           4                       # Number of branches that fetch encountered
system.cpu.fetch.Cycles                             4                       # Number of cycles fetch has run and was not squashing or blocked
system.cpu.fetch.SquashCycles                       7                       # Number of cycles fetch has spent squashing
system.cpu.fetch.PendingDrainCycles                 6                       # Number of cycles fetch has spent waiting on pipes to drain
system.cpu.fetch.CacheLines                         7                       # Number of cache lines fetched
system.cpu.fetch.IcacheSquashes                     4                       # Number of outstanding Icache misses that were squashed
system.cpu.fetch.rateDist::samples                 63                       # Number of instructions fetched each cycle (Total)
system.cpu.fetch.rateDist::mean              0.301587                       # Number of instructions fetched each cycle (Total)
system.cpu.fetch.rateDist::stdev             1.432738                       # Number of instructions fetched each cycle (Total)
system.cpu.fetch.rateDist::underflows               0      0.00%      0.00% # Number of instructions fetched each cycle (Total)
system.cpu.fetch.rateDist::0                       59     93.65%     93.65% # Number of instructions fetched each cycle (Total)
system.cpu.fetch.rateDist::1                        1      1.59%     95.24% # Number of instructions fetched each cycle (Total)
system.cpu.fetch.rateDist::2                        1      1.59%     96.83% # Number of instructions fetched each cycle (Total)
system.cpu.fetch.rateDist::3                        0      0.00%     96.83% # Number of instructions fetched each cycle (Total)
system.cpu.fetch.rateDist::4                        0      0.00%     96.83% # Number of instructions fetched each cycle (Total)
system.cpu.fetch.rateDist::5                        0      0.00%     96.83% # Number of instructions fetched each cycle (Total)
[...]
system.switch_cpus_1.iq.int_inst_queue_writes    560256389                       # Number of integer instruction queue writes
system.switch_cpus_1.iq.int_inst_queue_wakeup_accesses    316434288                       # Number of integer instruction queue wakeup accesses
system.switch_cpus_1.iq.fp_inst_queue_reads          222                       # Number of floating instruction queue reads
system.switch_cpus_1.iq.fp_inst_queue_writes          177                       # Number of floating instruction queue writes
system.switch_cpus_1.iq.fp_inst_queue_wakeup_accesses          101                       # Number of floating instruction queue wakeup accesses
system.switch_cpus_1.iq.int_alu_accesses    341315473                       # Number of integer alu accesses
system.switch_cpus_1.iq.fp_alu_accesses           111                       # Number of floating point alu accesses
system.switch_cpus_1.iew.lsq.thread0.forwLoads      3718549                       # Number of loads that had data forwarded from stores
system.switch_cpus_1.iew.lsq.thread0.invAddrLoads            0                       # Number of loads ignored due to an invalid address
system.switch_cpus_1.iew.lsq.thread0.squashedLoads     43036972                       # Number of loads squashed
system.switch_cpus_1.iew.lsq.thread0.ignoredResponses        24669                       # Number of memory responses ignored because the instruction is squashed
system.switch_cpus_1.iew.lsq.thread0.memOrderViolation        12347                       # Number of memory ordering violations
system.switch_cpus_1.iew.lsq.thread0.squashedStores     13361253                       # Number of stores squashed
system.switch_cpus_1.iew.lsq.thread0.invAddrSwpfs            0                       # Number of software prefetches ignored due to an invalid address
system.switch_cpus_1.iew.lsq.thread0.blockedLoads            0                       # Number of blocked loads due to partial load-store forwarding
system.switch_cpus_1.iew.lsq.thread0.rescheduledLoads            0                       # Number of loads that were rescheduled
system.switch_cpus_1.iew.lsq.thread0.cacheBlocked      6261333                       # Number of times an access to memory failed due to the cache being blocked
system.switch_cpus_1.iew.iewIdleCycles              0                       # Number of cycles IEW is idle
system.switch_cpus_1.iew.iewSquashCycles      3283757                       # Number of cycles IEW is squashing
system.switch_cpus_1.iew.iewBlockCycles      42268805                       # Number of cycles IEW is blocking
system.switch_cpus_1.iew.iewUnblockCycles     12158248                       # Number of cycles IEW is unblocking
system.switch_cpus_1.iew.iewDispatchedInsts    380817296                       # Number of instructions dispatched to IQ
system.switch_cpus_1.iew.iewDispSquashedInsts       966979                       # Number of squashed instructions skipped by dispatch
system.switch_cpus_1.iew.iewDispLoadInsts     92469720                       # Number of dispatched load instructions
system.switch_cpus_1.iew.iewDispStoreInsts     27426741                       # Number of dispatched store instructions
system.switch_cpus_1.iew.iewDispNonSpecInsts            0                       # Number of dispatched non-speculative instructions
system.switch_cpus_1.iew.iewIQFullEvents       221784                       # Number of times the IQ has become full, causing a stall
system.switch_cpus_1.iew.iewLSQFullEvents     11802049                       # Number of times the LSQ has become full, causing a stall
system.switch_cpus_1.iew.memOrderViolationEvents        12347                       # Number of memory order violations
system.switch_cpus_1.iew.predictedTakenIncorrect      1682254                       # Number of branches that were predicted taken incorrectly
system.switch_cpus_1.iew.predictedNotTakenIncorrect      1799178                       # Number of branches that were predicted not taken incorrectly
system.switch_cpus_1.iew.branchMispredicts      3481432                       # Number of branch mispredicts detected at execute
system.switch_cpus_1.iew.iewExecutedInsts    330558386                       # Number of executed instructions
system.switch_cpus_1.iew.iewExecLoadInsts     86895006                       # Number of load instructions executed
system.switch_cpus_1.iew.iewExecSquashedInsts      6263332                       # Number of squashed instructions skipped in execute
system.switch_cpus_1.iew.exec_swp                   0                       # number of swp insts executed
system.switch_cpus_1.iew.exec_nop              694827                       # number of nop insts executed
system.switch_cpus_1.iew.exec_refs          107751835                       # number of memory reference insts executed
system.switch_cpus_1.iew.exec_branches       38467997                       # Number of branches executed
system.switch_cpus_1.iew.exec_stores         20856829                       # Number of stores executed
system.switch_cpus_1.iew.exec_rate           1.552745                       # Inst execution rate
system.switch_cpus_1.iew.wb_sent            319992518                       # cumulative count of insts sent to commit
system.switch_cpus_1.iew.wb_count           316434389                       # cumulative count of insts written-back
system.switch_cpus_1.iew.wb_producers       205825397                       # num instructions producing a value
system.switch_cpus_1.iew.wb_consumers       270481393                       # num instructions consuming a value
system.switch_cpus_1.iew.wb_rate             1.486399                       # insts written-back per cycle
system.switch_cpus_1.iew.wb_fanout           0.760960                       # average fanout of values written-back
system.switch_cpus_1.commit.commitSquashedInsts    171056049                       # The number of squashed insts skipped by commit
system.switch_cpus_1.commit.branchMispredicts      2838989                       # The number of times a branch was mispredicted
system.switch_cpus_1.commit.committed_per_cycle::samples    189122351                       # Number of insts commited each cycle
system.switch_cpus_1.commit.committed_per_cycle::mean     1.060366                       # Number of insts commited each cycle
system.switch_cpus_1.commit.committed_per_cycle::stdev     2.268392                       # Number of insts commited each cycle
system.switch_cpus_1.commit.committed_per_cycle::underflows            0      0.00%      0.00% # Number of insts commited each cycle
system.switch_cpus_1.commit.committed_per_cycle::0    135241639     71.51%     71.51% # Number of insts commited each cycle
system.switch_cpus_1.commit.committed_per_cycle::1     17144839      9.07%     80.58% # Number of insts commited each cycle
system.switch_cpus_1.commit.committed_per_cycle::2     11051455      5.84%     86.42% # Number of insts commited each cycle
system.switch_cpus_1.commit.committed_per_cycle::3      4946728      2.62%     89.03% # Number of insts commited each cycle
system.switch_cpus_1.commit.committed_per_cycle::4      2521397      1.33%     90.37% # Number of insts commited each cycle
system.switch_cpus_1.commit.committed_per_cycle::5      1898503      1.00%     91.37% # Number of insts commited each cycle
system.switch_cpus_1.commit.committed_per_cycle::6      1409817      0.75%     92.12% # Number of insts commited each cycle
system.switch_cpus_1.commit.committed_per_cycle::7       849790      0.45%     92.57% # Number of insts commited each cycle
system.switch_cpus_1.commit.committed_per_cycle::8     14058183      7.43%    100.00% # Number of insts commited each cycle
system.switch_cpus_1.commit.committed_per_cycle::overflows            0      0.00%    100.00% # Number of insts commited each cycle
system.switch_cpus_1.commit.committed_per_cycle::min_value            0                       # Number of insts commited each cycle
system.switch_cpus_1.commit.committed_per_cycle::max_value            8                       # Number of insts commited each cycle
system.switch_cpus_1.commit.committed_per_cycle::total    189122351                       # Number of insts commited each cycle
system.switch_cpus_1.commit.committedInsts    200538932                       # Number of instructions committed
system.switch_cpus_1.commit.committedOps    200538932                       # Number of ops (including micro ops) committed
system.switch_cpus_1.commit.swp_count               0                       # Number of s/w prefetches committed
system.switch_cpus_1.commit.refs             63498195                       # Number of memory references committed
system.switch_cpus_1.commit.loads            49432720                       # Number of loads committed
system.switch_cpus_1.commit.membars                 0                       # Number of memory barriers committed
system.switch_cpus_1.commit.branches         24329166                       # Number of branches committed
system.switch_cpus_1.commit.fp_insts               91                       # Number of committed floating point instructions.
system.switch_cpus_1.commit.int_insts       197997126                       # Number of committed integer instructions.
system.switch_cpus_1.commit.function_calls       749984                       # Number of function calls committed.
system.switch_cpus_1.commit.op_class_0::No_OpClass       538941      0.27%      0.27% # Class of committed instruction
system.switch_cpus_1.commit.op_class_0::IntAlu    136501742     68.07%     68.34% # Class of committed instruction
system.switch_cpus_1.commit.op_class_0::IntMult            0      0.00%     68.34% # Class of committed instruction
system.switch_cpus_1.commit.op_class_0::IntDiv            0      0.00%     68.34% # Class of committed instruction
system.switch_cpus_1.commit.op_class_0::FloatAdd           30      0.00%     68.34% # Class of committed instruction
system.switch_cpus_1.commit.op_class_0::FloatCmp            0      0.00%     68.34% # Class of committed instruction
system.switch_cpus_1.commit.op_class_0::FloatCvt           18      0.00%     68.34% # Class of committed instruction
system.switch_cpus_1.commit.op_class_0::FloatMult            0      0.00%     68.34% # Class of committed instruction
system.switch_cpus_1.commit.op_class_0::FloatMultAcc            0      0.00%     68.34% # Class of committed instruction
system.switch_cpus_1.commit.op_class_0::FloatDiv            6      0.00%     68.34% # Class of committed instruction
system.switch_cpus_1.commit.op_class_0::FloatMisc            0      0.00%     68.34% # Class of committed instruction
system.switch_cpus_1.commit.op_class_0::FloatSqrt            0      0.00%     68.34% # Class of committed instruction
system.switch_cpus_1.commit.op_class_0::SimdAdd            0      0.00%     68.34% # Class of committed instruction
system.switch_cpus_1.commit.op_class_0::SimdAddAcc            0      0.00%     68.34% # Class of committed instruction
system.switch_cpus_1.commit.op_class_0::SimdAlu            0      0.00%     68.34% # Class of committed instruction
system.switch_cpus_1.commit.op_class_0::SimdCmp            0      0.00%     68.34% # Class of committed instruction
system.switch_cpus_1.commit.op_class_0::SimdCvt            0      0.00%     68.34% # Class of committed instruction
system.switch_cpus_1.commit.op_class_0::SimdMisc            0      0.00%     68.34% # Class of committed instruction
system.switch_cpus_1.commit.op_class_0::SimdMult            0      0.00%     68.34% # Class of committed instruction
system.switch_cpus_1.commit.op_class_0::SimdMultAcc            0      0.00%     68.34% # Class of committed instruction
system.switch_cpus_1.commit.op_class_0::SimdShift            0      0.00%     68.34% # Class of committed instruction
system.switch_cpus_1.commit.op_class_0::SimdShiftAcc            0      0.00%     68.34% # Class of committed instruction
system.switch_cpus_1.commit.op_class_0::SimdSqrt            0      0.00%     68.34% # Class of committed instruction
system.switch_cpus_1.commit.op_class_0::SimdFloatAdd            0      0.00%     68.34% # Class of committed instruction
system.switch_cpus_1.commit.op_class_0::SimdFloatAlu            0      0.00%     68.34% # Class of committed instruction
system.switch_cpus_1.commit.op_class_0::SimdFloatCmp            0      0.00%     68.34% # Class of committed instruction
system.switch_cpus_1.commit.op_class_0::SimdFloatCvt            0      0.00%     68.34% # Class of committed instruction
system.switch_cpus_1.commit.op_class_0::SimdFloatDiv            0      0.00%     68.34% # Class of committed instruction
system.switch_cpus_1.commit.op_class_0::SimdFloatMisc            0      0.00%     68.34% # Class of committed instruction
system.switch_cpus_1.commit.op_class_0::SimdFloatMult            0      0.00%     68.34% # Class of committed instruction
system.switch_cpus_1.commit.op_class_0::SimdFloatMultAcc            0      0.00%     68.34% # Class of committed instruction
system.switch_cpus_1.commit.op_class_0::SimdFloatSqrt            0      0.00%     68.34% # Class of committed instruction
system.switch_cpus_1.commit.op_class_0::MemRead     49432701     24.65%     92.99% # Class of committed instruction
system.switch_cpus_1.commit.op_class_0::MemWrite     14065457      7.01%    100.00% # Class of committed instruction
system.switch_cpus_1.commit.op_class_0::FloatMemRead           19      0.00%    100.00% # Class of committed instruction
system.switch_cpus_1.commit.op_class_0::FloatMemWrite           18      0.00%    100.00% # Class of committed instruction
system.switch_cpus_1.commit.op_class_0::IprAccess            0      0.00%    100.00% # Class of committed instruction
system.switch_cpus_1.commit.op_class_0::InstPrefetch            0      0.00%    100.00% # Class of committed instruction
system.switch_cpus_1.commit.op_class_0::total    200538932                       # Class of committed instruction
system.switch_cpus_1.commit.bw_lim_events     14058183                       # number cycles where commit BW limit reached
system.switch_cpus_1.rob.rob_reads          541003525                       # The number of ROB reads
system.switch_cpus_1.rob.rob_writes         766968487                       # The number of ROB writes
system.switch_cpus_1.timesIdled                   195                       # Number of times that the entire CPU went into an idle state and unscheduled itself
system.switch_cpus_1.idleCycles                 15330                       # Total number of cycles that the CPU has spent unscheduled due to idling
system.switch_cpus_1.committedInsts         200000003                       # Number of Instructions Simulated
system.switch_cpus_1.committedOps           200000003                       # Number of Ops (including micro ops) Simulated
system.switch_cpus_1.cpi                     1.064433                       # CPI: Cycles Per Instruction
system.switch_cpus_1.cpi_total               1.064433                       # CPI: Total CPI of All Threads
system.switch_cpus_1.ipc                     0.939468                       # IPC: Instructions Per Cycle
system.switch_cpus_1.ipc_total               0.939468                       # IPC: Total IPC of All Threads
system.switch_cpus_1.int_regfile_reads      449839064                       # number of integer regfile reads
system.switch_cpus_1.int_regfile_writes     260634916                       # number of integer regfile writes
system.switch_cpus_1.fp_regfile_reads              63                       # number of floating regfile reads
system.switch_cpus_1.fp_regfile_writes            103                       # number of floating regfile writes
system.switch_cpus_1.misc_regfile_reads            12                       # number of misc regfile reads
system.switch_cpus_1.misc_regfile_writes            6                       # number of misc regfile writes
system.tol3bus.snoop_filter.tot_requests     15148786                       # Total number of requests made to the snoop filter.
system.tol3bus.snoop_filter.hit_single_requests      7572242                       # Number of requests hitting in the snoop filter with a single holder of the requested data.
system.tol3bus.snoop_filter.hit_multi_requests            0                       # Number of requests hitting in the snoop filter with multiple (>1) holders of the requested data.
system.tol3bus.snoop_filter.tot_snoops           1374                       # Total number of snoops made to the snoop filter.
system.tol3bus.snoop_filter.hit_single_snoops         1374                       # Number of snoops hitting in the snoop filter with a single holder of the requested data.
system.tol3bus.snoop_filter.hit_multi_snoops            0                       # Number of snoops hitting in the snoop filter with multiple (>1) holders of the requested data.
system.tol3bus.pwrStateResidencyTicks::UNDEFINED 191305057869909                       # Cumulative time (in ticks) in various power states
system.tol3bus.trans_dist::ReadResp           5401134                       # Transaction distribution
system.tol3bus.trans_dist::WritebackDirty      4394667                       # Transaction distribution
system.tol3bus.trans_dist::CleanEvict         3893884                       # Transaction distribution
system.tol3bus.trans_dist::UpgradeReq               4                       # Transaction distribution
system.tol3bus.trans_dist::UpgradeResp              4                       # Transaction distribution
system.tol3bus.trans_dist::ReadExReq          2175410                       # Transaction distribution
system.tol3bus.trans_dist::ReadExResp         2175410                       # Transaction distribution
system.tol3bus.trans_dist::ReadSharedReq      5401134                       # Transaction distribution
system.tol3bus.pkt_count_system.cpu.l2.mem_side::system.l3.cpu_side     22725334                       # Packet count per connected master and slave (bytes)
system.tol3bus.pkt_size_system.cpu.l2.mem_side::system.l3.cpu_side    733531392                       # Cumulative packet size per connected master and slave (bytes)
system.tol3bus.snoops                          716313                       # Total snoops (count)
system.tol3bus.snoopTraffic                  32626112                       # Total snoop traffic (bytes)
system.tol3bus.snoop_fanout::samples          8292861                       # Request fanout histogram
system.tol3bus.snoop_fanout::mean            0.000166                       # Request fanout histogram
system.tol3bus.snoop_fanout::stdev           0.012871                       # Request fanout histogram
system.tol3bus.snoop_fanout::underflows             0      0.00%      0.00% # Request fanout histogram
system.tol3bus.snoop_fanout::0                8291487     99.98%     99.98% # Request fanout histogram
system.tol3bus.snoop_fanout::1                   1374      0.02%    100.00% # Request fanout histogram
system.tol3bus.snoop_fanout::overflows              0      0.00%    100.00% # Request fanout histogram
system.tol3bus.snoop_fanout::min_value              0                       # Request fanout histogram
system.tol3bus.snoop_fanout::max_value              1                       # Request fanout histogram
system.tol3bus.snoop_fanout::total            8292861                       # Request fanout histogram
system.tol3bus.reqLayer0.occupancy         6338212110                       # Layer occupancy (ticks)
system.tol3bus.reqLayer0.utilization              0.5                       # Layer utilization (%)
system.tol3bus.respLayer0.occupancy        5045979636                       # Layer occupancy (ticks)
system.tol3bus.respLayer0.utilization             0.4                       # Layer utilization (%)

---------- End Simulation Statistics   ----------
