
---------- Begin Simulation Statistics ----------
sim_seconds                                  3.119347                       # Number of seconds simulated
sim_ticks                                3119347329534                       # Number of ticks simulated
final_tick                               146596335646608                       # Number of ticks from beginning of simulation (restored from checkpoints and never reset)
sim_freq                                 1000000000000                       # Frequency of simulated ticks
host_inst_rate                                 189080                       # Simulator instruction rate (inst/s)
host_op_rate                                   189080                       # Simulator op (including micro ops) rate (op/s)
host_tick_rate                              393204875                       # Simulator tick rate (ticks/s)
host_mem_usage                                2543340                       # Number of bytes of host memory used
host_seconds                                  7933.14                       # Real time elapsed on the host
sim_insts                                  1500000005                       # Number of instructions simulated
sim_ops                                    1500000005                       # Number of ops (including micro ops) simulated
system.voltage_domain.voltage                       1                       # Voltage in Volts
system.clk_domain.clock                          1000                       # Clock period in ticks
system.mem_ctrls0.pwrStateResidencyTicks::UNDEFINED 146596335646608                       # Cumulative time (in ticks) in various power states
system.mem_ctrls0.bytes_read::cpu.inst            128                       # Number of bytes read from this memory
system.mem_ctrls0.bytes_read::cpu.data            256                       # Number of bytes read from this memory
system.mem_ctrls0.bytes_read::switch_cpus.inst        20864                       # Number of bytes read from this memory
system.mem_ctrls0.bytes_read::switch_cpus.data    440896256                       # Number of bytes read from this memory
system.mem_ctrls0.bytes_read::switch_cpus_1.inst        26624                       # Number of bytes read from this memory
system.mem_ctrls0.bytes_read::switch_cpus_1.data    172792384                       # Number of bytes read from this memory
system.mem_ctrls0.bytes_read::total         613736512                       # Number of bytes read from this memory
system.mem_ctrls0.bytes_inst_read::cpu.inst          128                       # Number of instructions bytes read from this memory
system.mem_ctrls0.bytes_inst_read::switch_cpus.inst        20864                       # Number of instructions bytes read from this memory
system.mem_ctrls0.bytes_inst_read::switch_cpus_1.inst        26624                       # Number of instructions bytes read from this memory
system.mem_ctrls0.bytes_inst_read::total        47616                       # Number of instructions bytes read from this memory
system.mem_ctrls0.bytes_written::writebacks    329345536                       # Number of bytes written to this memory
system.mem_ctrls0.bytes_written::total      329345536                       # Number of bytes written to this memory
system.mem_ctrls0.num_reads::cpu.inst               2                       # Number of read requests responded to by this memory
system.mem_ctrls0.num_reads::cpu.data               4                       # Number of read requests responded to by this memory
system.mem_ctrls0.num_reads::switch_cpus.inst          326                       # Number of read requests responded to by this memory
system.mem_ctrls0.num_reads::switch_cpus.data      6889004                       # Number of read requests responded to by this memory
system.mem_ctrls0.num_reads::switch_cpus_1.inst          416                       # Number of read requests responded to by this memory
system.mem_ctrls0.num_reads::switch_cpus_1.data      2699881                       # Number of read requests responded to by this memory
system.mem_ctrls0.num_reads::total            9589633                       # Number of read requests responded to by this memory
system.mem_ctrls0.num_writes::writebacks      5146024                       # Number of write requests responded to by this memory
system.mem_ctrls0.num_writes::total           5146024                       # Number of write requests responded to by this memory
system.mem_ctrls0.bw_read::cpu.inst                41                       # Total read bandwidth from this memory (bytes/s)
system.mem_ctrls0.bw_read::cpu.data                82                       # Total read bandwidth from this memory (bytes/s)
system.mem_ctrls0.bw_read::switch_cpus.inst         6689                       # Total read bandwidth from this memory (bytes/s)
system.mem_ctrls0.bw_read::switch_cpus.data    141342470                       # Total read bandwidth from this memory (bytes/s)
system.mem_ctrls0.bw_read::switch_cpus_1.inst         8535                       # Total read bandwidth from this memory (bytes/s)
system.mem_ctrls0.bw_read::switch_cpus_1.data     55393762                       # Total read bandwidth from this memory (bytes/s)
system.mem_ctrls0.bw_read::total            196751579                       # Total read bandwidth from this memory (bytes/s)
system.mem_ctrls0.bw_inst_read::cpu.inst           41                       # Instruction read bandwidth from this memory (bytes/s)
system.mem_ctrls0.bw_inst_read::switch_cpus.inst         6689                       # Instruction read bandwidth from this memory (bytes/s)
system.mem_ctrls0.bw_inst_read::switch_cpus_1.inst         8535                       # Instruction read bandwidth from this memory (bytes/s)
system.mem_ctrls0.bw_inst_read::total           15265                       # Instruction read bandwidth from this memory (bytes/s)
system.mem_ctrls0.bw_write::writebacks      105581553                       # Write bandwidth from this memory (bytes/s)
system.mem_ctrls0.bw_write::total           105581553                       # Write bandwidth from this memory (bytes/s)
system.mem_ctrls0.bw_total::writebacks      105581553                       # Total bandwidth to/from this memory (bytes/s)
system.mem_ctrls0.bw_total::cpu.inst               41                       # Total bandwidth to/from this memory (bytes/s)
system.mem_ctrls0.bw_total::cpu.data               82                       # Total bandwidth to/from this memory (bytes/s)
system.mem_ctrls0.bw_total::switch_cpus.inst         6689                       # Total bandwidth to/from this memory (bytes/s)
system.mem_ctrls0.bw_total::switch_cpus.data    141342470                       # Total bandwidth to/from this memory (bytes/s)
system.mem_ctrls0.bw_total::switch_cpus_1.inst         8535                       # Total bandwidth to/from this memory (bytes/s)
system.mem_ctrls0.bw_total::switch_cpus_1.data     55393762                       # Total bandwidth to/from this memory (bytes/s)
system.mem_ctrls0.bw_total::total           302333132                       # Total bandwidth to/from this memory (bytes/s)
system.mem_ctrls0.readReqs                    9589633                       # Number of read requests accepted
system.mem_ctrls0.writeReqs                   5146024                       # Number of write requests accepted
system.mem_ctrls0.readBursts                  9589633                       # Number of DRAM read bursts, including those serviced by the write queue
system.mem_ctrls0.writeBursts                 5146024                       # Number of DRAM write bursts, including those merged in the write queue
system.mem_ctrls0.bytesReadDRAM             613735744                       # Total number of bytes read from DRAM
system.mem_ctrls0.bytesReadWrQ                    768                       # Total number of bytes read from write queue
system.mem_ctrls0.bytesWritten              329344384                       # Total number of bytes written to DRAM
system.mem_ctrls0.bytesReadSys              613736512                       # Total read bytes from the system interface side
system.mem_ctrls0.bytesWrittenSys           329345536                       # Total written bytes from the system interface side
system.mem_ctrls0.servicedByWrQ                    12                       # Number of DRAM read bursts serviced by the write queue
system.mem_ctrls0.mergedWrBursts                    0                       # Number of DRAM write bursts merged with an existing one
system.mem_ctrls0.neitherReadNorWriteReqs            0                       # Number of requests that are neither read nor write
system.mem_ctrls0.perBankRdBursts::0           600909                       # Per bank write bursts
system.mem_ctrls0.perBankRdBursts::1           599274                       # Per bank write bursts
system.mem_ctrls0.perBankRdBursts::2           598463                       # Per bank write bursts
system.mem_ctrls0.perBankRdBursts::3           598532                       # Per bank write bursts
system.mem_ctrls0.perBankRdBursts::4           601242                       # Per bank write bursts
system.mem_ctrls0.perBankRdBursts::5           600913                       # Per bank write bursts
system.mem_ctrls0.perBankRdBursts::6           600062                       # Per bank write bursts
system.mem_ctrls0.perBankRdBursts::7           597479                       # Per bank write bursts
system.mem_ctrls0.perBankRdBursts::8           597484                       # Per bank write bursts
system.mem_ctrls0.perBankRdBursts::9           598906                       # Per bank write bursts
system.mem_ctrls0.perBankRdBursts::10          599659                       # Per bank write bursts
system.mem_ctrls0.perBankRdBursts::11          600585                       # Per bank write bursts
system.mem_ctrls0.perBankRdBursts::12          598660                       # Per bank write bursts
system.mem_ctrls0.perBankRdBursts::13          597670                       # Per bank write bursts
system.mem_ctrls0.perBankRdBursts::14          599241                       # Per bank write bursts
system.mem_ctrls0.perBankRdBursts::15          600542                       # Per bank write bursts
system.mem_ctrls0.perBankWrBursts::0           322906                       # Per bank write bursts
system.mem_ctrls0.perBankWrBursts::1           321868                       # Per bank write bursts
system.mem_ctrls0.perBankWrBursts::2           321486                       # Per bank write bursts
system.mem_ctrls0.perBankWrBursts::3           321518                       # Per bank write bursts
system.mem_ctrls0.perBankWrBursts::4           322322                       # Per bank write bursts
system.mem_ctrls0.perBankWrBursts::5           322082                       # Per bank write bursts
system.mem_ctrls0.perBankWrBursts::6           321779                       # Per bank write bursts
system.mem_ctrls0.perBankWrBursts::7           320288                       # Per bank write bursts
system.mem_ctrls0.perBankWrBursts::8           320030                       # Per bank write bursts
system.mem_ctrls0.perBankWrBursts::9           320626                       # Per bank write bursts
system.mem_ctrls0.perBankWrBursts::10          321893                       # Per bank write bursts
system.mem_ctrls0.perBankWrBursts::11          322393                       # Per bank write bursts
system.mem_ctrls0.perBankWrBursts::12          321639                       # Per bank write bursts
system.mem_ctrls0.perBankWrBursts::13          320796                       # Per bank write bursts
system.mem_ctrls0.perBankWrBursts::14          321860                       # Per bank write bursts
system.mem_ctrls0.perBankWrBursts::15          322520                       # Per bank write bursts
system.mem_ctrls0.numRdRetry                        0                       # Number of times read queue was full causing retry
system.mem_ctrls0.numWrRetry                        0                       # Number of times write queue was full causing retry
system.mem_ctrls0.totGap                 3119346924606                       # Total gap between requests
system.mem_ctrls0.readPktSize::0                    0                       # Read request sizes (log2)
system.mem_ctrls0.readPktSize::1                    0                       # Read request sizes (log2)
system.mem_ctrls0.readPktSize::2                    0                       # Read request sizes (log2)
system.mem_ctrls0.readPktSize::3                    0                       # Read request sizes (log2)
system.mem_ctrls0.readPktSize::4                    0                       # Read request sizes (log2)
system.mem_ctrls0.readPktSize::5                    0                       # Read request sizes (log2)
system.mem_ctrls0.readPktSize::6              9589633                       # Read request sizes (log2)
system.mem_ctrls0.writePktSize::0                   0                       # Write request sizes (log2)
system.mem_ctrls0.writePktSize::1                   0                       # Write request sizes (log2)
system.mem_ctrls0.writePktSize::2                   0                       # Write request sizes (log2)
system.mem_ctrls0.writePktSize::3                   0                       # Write request sizes (log2)
system.mem_ctrls0.writePktSize::4                   0                       # Write request sizes (log2)
system.mem_ctrls0.writePktSize::5                   0                       # Write request sizes (log2)
system.mem_ctrls0.writePktSize::6             5146024                       # Write request sizes (log2)
system.mem_ctrls0.rdQLenPdf::0                8694053                       # What read queue length does an incoming req see
system.mem_ctrls0.rdQLenPdf::1                 657751                       # What read queue length does an incoming req see
system.mem_ctrls0.rdQLenPdf::2                 208117                       # What read queue length does an incoming req see
system.mem_ctrls0.rdQLenPdf::3                  29698                       # What read queue length does an incoming req see
system.mem_ctrls0.rdQLenPdf::4                      2                       # What read queue length does an incoming req see
system.mem_ctrls0.rdQLenPdf::5                      0                       # What read queue length does an incoming req see
system.mem_ctrls0.rdQLenPdf::6                      0                       # What read queue length does an incoming req see
system.mem_ctrls0.rdQLenPdf::7                      0                       # What read queue length does an incoming req see
system.mem_ctrls0.rdQLenPdf::8                      0                       # What read queue length does an incoming req see
system.mem_ctrls0.rdQLenPdf::9                      0                       # What read queue length does an incoming req see
system.mem_ctrls0.rdQLenPdf::10                     0                       # What read queue length does an incoming req see
system.mem_ctrls0.rdQLenPdf::11                     0                       # What read queue length does an incoming req see
system.mem_ctrls0.rdQLenPdf::12                     0                       # What read queue length does an incoming req see
system.mem_ctrls0.rdQLenPdf::13                     0                       # What read queue length does an incoming req see
system.mem_ctrls0.rdQLenPdf::14                     0                       # What read queue length does an incoming req see
system.mem_ctrls0.rdQLenPdf::15                     0                       # What read queue length does an incoming req see
system.mem_ctrls0.rdQLenPdf::16                     0                       # What read queue length does an incoming req see
system.mem_ctrls0.rdQLenPdf::17                     0                       # What read queue length does an incoming req see
system.mem_ctrls0.rdQLenPdf::18                     0                       # What read queue length does an incoming req see
system.mem_ctrls0.rdQLenPdf::19                     0                       # What read queue length does an incoming req see
system.mem_ctrls0.rdQLenPdf::20                     0                       # What read queue length does an incoming req see
system.mem_ctrls0.rdQLenPdf::21                     0                       # What read queue length does an incoming req see
system.mem_ctrls0.rdQLenPdf::22                     0                       # What read queue length does an incoming req see
system.mem_ctrls0.rdQLenPdf::23                     0                       # What read queue length does an incoming req see
system.mem_ctrls0.rdQLenPdf::24                     0                       # What read queue length does an incoming req see
system.mem_ctrls0.rdQLenPdf::25                     0                       # What read queue length does an incoming req see
system.mem_ctrls0.rdQLenPdf::26                     0                       # What read queue length does an incoming req see
system.mem_ctrls0.rdQLenPdf::27                     0                       # What read queue length does an incoming req see
system.mem_ctrls0.rdQLenPdf::28                     0                       # What read queue length does an incoming req see
system.mem_ctrls0.rdQLenPdf::29                     0                       # What read queue length does an incoming req see
system.mem_ctrls0.rdQLenPdf::30                     0                       # What read queue length does an incoming req see
system.mem_ctrls0.rdQLenPdf::31                     0                       # What read queue length does an incoming req see
system.mem_ctrls0.wrQLenPdf::0                      2                       # What write queue length does an incoming req see
system.mem_ctrls0.wrQLenPdf::1                      2                       # What write queue length does an incoming req see
system.mem_ctrls0.wrQLenPdf::2                      2                       # What write queue length does an incoming req see
system.mem_ctrls0.wrQLenPdf::3                      2                       # What write queue length does an incoming req see
system.mem_ctrls0.wrQLenPdf::4                      2                       # What write queue length does an incoming req see
system.mem_ctrls0.wrQLenPdf::5                      2                       # What write queue length does an incoming req see
system.mem_ctrls0.wrQLenPdf::6                      2                       # What write queue length does an incoming req see
system.mem_ctrls0.wrQLenPdf::7                      2                       # What write queue length does an incoming req see
system.mem_ctrls0.wrQLenPdf::8                      2                       # What write queue length does an incoming req see
system.mem_ctrls0.wrQLenPdf::9                      2                       # What write queue length does an incoming req see
system.mem_ctrls0.wrQLenPdf::10                     2                       # What write queue length does an incoming req see
system.mem_ctrls0.wrQLenPdf::11                     2                       # What write queue length does an incoming req see
system.mem_ctrls0.wrQLenPdf::12                     2                       # What write queue length does an incoming req see
system.mem_ctrls0.wrQLenPdf::13                     2                       # What write queue length does an incoming req see
system.mem_ctrls0.wrQLenPdf::14                     2                       # What write queue length does an incoming req see
system.mem_ctrls0.wrQLenPdf::15                166837                       # What write queue length does an incoming req see
system.mem_ctrls0.wrQLenPdf::16                176415                       # What write queue length does an incoming req see
system.mem_ctrls0.wrQLenPdf::17                284583                       # What write queue length does an incoming req see
system.mem_ctrls0.wrQLenPdf::18                297807                       # What write queue length does an incoming req see
system.mem_ctrls0.wrQLenPdf::19                300202                       # What write queue length does an incoming req see
system.mem_ctrls0.wrQLenPdf::20                300560                       # What write queue length does an incoming req see
system.mem_ctrls0.wrQLenPdf::21                300593                       # What write queue length does an incoming req see
system.mem_ctrls0.wrQLenPdf::22                300864                       # What write queue length does an incoming req see
system.mem_ctrls0.wrQLenPdf::23                301474                       # What write queue length does an incoming req see
system.mem_ctrls0.wrQLenPdf::24                301372                       # What write queue length does an incoming req see
system.mem_ctrls0.wrQLenPdf::25                301036                       # What write queue length does an incoming req see
system.mem_ctrls0.wrQLenPdf::26                301120                       # What write queue length does an incoming req see
system.mem_ctrls0.wrQLenPdf::27                301132                       # What write queue length does an incoming req see
system.mem_ctrls0.wrQLenPdf::28                301579                       # What write queue length does an incoming req see
system.mem_ctrls0.wrQLenPdf::29                302720                       # What write queue length does an incoming req see
system.mem_ctrls0.wrQLenPdf::30                307175                       # What write queue length does an incoming req see
system.mem_ctrls0.wrQLenPdf::31                300298                       # What write queue length does an incoming req see
system.mem_ctrls0.wrQLenPdf::32                299465                       # What write queue length does an incoming req see
system.mem_ctrls0.wrQLenPdf::33                   459                       # What write queue length does an incoming req see
system.mem_ctrls0.wrQLenPdf::34                   113                       # What write queue length does an incoming req see
system.mem_ctrls0.wrQLenPdf::35                    35                       # What write queue length does an incoming req see
system.mem_ctrls0.wrQLenPdf::36                    39                       # What write queue length does an incoming req see
system.mem_ctrls0.wrQLenPdf::37                    30                       # What write queue length does an incoming req see
system.mem_ctrls0.wrQLenPdf::38                    18                       # What write queue length does an incoming req see
system.mem_ctrls0.wrQLenPdf::39                    20                       # What write queue length does an incoming req see
system.mem_ctrls0.wrQLenPdf::40                    13                       # What write queue length does an incoming req see
system.mem_ctrls0.wrQLenPdf::41                    14                       # What write queue length does an incoming req see
system.mem_ctrls0.wrQLenPdf::42                    12                       # What write queue length does an incoming req see
system.mem_ctrls0.wrQLenPdf::43                     4                       # What write queue length does an incoming req see
system.mem_ctrls0.wrQLenPdf::44                     2                       # What write queue length does an incoming req see
system.mem_ctrls0.wrQLenPdf::45                     1                       # What write queue length does an incoming req see
system.mem_ctrls0.wrQLenPdf::46                     1                       # What write queue length does an incoming req see
system.mem_ctrls0.wrQLenPdf::47                     1                       # What write queue length does an incoming req see
system.mem_ctrls0.wrQLenPdf::48                     0                       # What write queue length does an incoming req see
system.mem_ctrls0.wrQLenPdf::49                     0                       # What write queue length does an incoming req see
system.mem_ctrls0.wrQLenPdf::50                     0                       # What write queue length does an incoming req see
system.mem_ctrls0.wrQLenPdf::51                     0                       # What write queue length does an incoming req see
system.mem_ctrls0.wrQLenPdf::52                     0                       # What write queue length does an incoming req see
system.mem_ctrls0.wrQLenPdf::53                     0                       # What write queue length does an incoming req see
system.mem_ctrls0.wrQLenPdf::54                     0                       # What write queue length does an incoming req see
system.mem_ctrls0.wrQLenPdf::55                     0                       # What write queue length does an incoming req see
system.mem_ctrls0.wrQLenPdf::56                     0                       # What write queue length does an incoming req see
system.mem_ctrls0.wrQLenPdf::57                     0                       # What write queue length does an incoming req see
system.mem_ctrls0.wrQLenPdf::58                     0                       # What write queue length does an incoming req see
system.mem_ctrls0.wrQLenPdf::59                     0                       # What write queue length does an incoming req see
system.mem_ctrls0.wrQLenPdf::60                     0                       # What write queue length does an incoming req see
system.mem_ctrls0.wrQLenPdf::61                     0                       # What write queue length does an incoming req see
system.mem_ctrls0.wrQLenPdf::62                     0                       # What write queue length does an incoming req see
system.mem_ctrls0.wrQLenPdf::63                     0                       # What write queue length does an incoming req see
system.mem_ctrls0.bytesPerActivate::samples     10321963                       # Bytes accessed per row activation
system.mem_ctrls0.bytesPerActivate::mean    91.366336                       # Bytes accessed per row activation
system.mem_ctrls0.bytesPerActivate::gmean    81.568654                       # Bytes accessed per row activation
system.mem_ctrls0.bytesPerActivate::stdev    56.767616                       # Bytes accessed per row activation
system.mem_ctrls0.bytesPerActivate::0-127      7508576     72.74%     72.74% # Bytes accessed per row activation
system.mem_ctrls0.bytesPerActivate::128-255      2421768     23.46%     96.21% # Bytes accessed per row activation
system.mem_ctrls0.bytesPerActivate::256-383       344656      3.34%     99.55% # Bytes accessed per row activation
system.mem_ctrls0.bytesPerActivate::384-511        34672      0.34%     99.88% # Bytes accessed per row activation
system.mem_ctrls0.bytesPerActivate::512-639         5650      0.05%     99.94% # Bytes accessed per row activation
system.mem_ctrls0.bytesPerActivate::640-767         1917      0.02%     99.95% # Bytes accessed per row activation
system.mem_ctrls0.bytesPerActivate::768-895         1471      0.01%     99.97% # Bytes accessed per row activation
system.mem_ctrls0.bytesPerActivate::896-1023          727      0.01%     99.98% # Bytes accessed per row activation
system.mem_ctrls0.bytesPerActivate::1024-1151         2526      0.02%    100.00% # Bytes accessed per row activation
system.mem_ctrls0.bytesPerActivate::total     10321963                       # Bytes accessed per row activation
system.mem_ctrls0.rdPerTurnAround::samples       298921                       # Reads before turning the bus around for writes
system.mem_ctrls0.rdPerTurnAround::mean     32.035923                       # Reads before turning the bus around for writes
system.mem_ctrls0.rdPerTurnAround::stdev    85.414291                       # Reads before turning the bus around for writes
system.mem_ctrls0.rdPerTurnAround::0-2047       298914    100.00%    100.00% # Reads before turning the bus around for writes
system.mem_ctrls0.rdPerTurnAround::2048-4095            2      0.00%    100.00% # Reads before turning the bus around for writes
system.mem_ctrls0.rdPerTurnAround::4096-6143            1      0.00%    100.00% # Reads before turning the bus around for writes
system.mem_ctrls0.rdPerTurnAround::6144-8191            1      0.00%    100.00% # Reads before turning the bus around for writes
system.mem_ctrls0.rdPerTurnAround::10240-12287            1      0.00%    100.00% # Reads before turning the bus around for writes
system.mem_ctrls0.rdPerTurnAround::26624-28671            1      0.00%    100.00% # Reads before turning the bus around for writes
system.mem_ctrls0.rdPerTurnAround::32768-34815            1      0.00%    100.00% # Reads before turning the bus around for writes
system.mem_ctrls0.rdPerTurnAround::total       298921                       # Reads before turning the bus around for writes
system.mem_ctrls0.wrPerTurnAround::samples       298921                       # Writes before turning the bus around for reads
system.mem_ctrls0.wrPerTurnAround::mean     17.215271                       # Writes before turning the bus around for reads
system.mem_ctrls0.wrPerTurnAround::gmean    17.179792                       # Writes before turning the bus around for reads
system.mem_ctrls0.wrPerTurnAround::stdev     1.179047                       # Writes before turning the bus around for reads
system.mem_ctrls0.wrPerTurnAround::16-17       130806     43.76%     43.76% # Writes before turning the bus around for reads
system.mem_ctrls0.wrPerTurnAround::18-19       165899     55.50%     99.26% # Writes before turning the bus around for reads
system.mem_ctrls0.wrPerTurnAround::20-21         2063      0.69%     99.95% # Writes before turning the bus around for reads
system.mem_ctrls0.wrPerTurnAround::22-23           69      0.02%     99.97% # Writes before turning the bus around for reads
system.mem_ctrls0.wrPerTurnAround::24-25           18      0.01%     99.98% # Writes before turning the bus around for reads
system.mem_ctrls0.wrPerTurnAround::26-27           13      0.00%     99.98% # Writes before turning the bus around for reads
system.mem_ctrls0.wrPerTurnAround::28-29            7      0.00%     99.98% # Writes before turning the bus around for reads
system.mem_ctrls0.wrPerTurnAround::30-31            8      0.00%     99.99% # Writes before turning the bus around for reads
system.mem_ctrls0.wrPerTurnAround::32-33            6      0.00%     99.99% # Writes before turning the bus around for reads
system.mem_ctrls0.wrPerTurnAround::34-35            4      0.00%     99.99% # Writes before turning the bus around for reads
system.mem_ctrls0.wrPerTurnAround::36-37            6      0.00%     99.99% # Writes before turning the bus around for reads
system.mem_ctrls0.wrPerTurnAround::38-39            1      0.00%     99.99% # Writes before turning the bus around for reads
system.mem_ctrls0.wrPerTurnAround::40-41            1      0.00%     99.99% # Writes before turning the bus around for reads
system.mem_ctrls0.wrPerTurnAround::44-45            3      0.00%     99.99% # Writes before turning the bus around for reads
system.mem_ctrls0.wrPerTurnAround::46-47            1      0.00%     99.99% # Writes before turning the bus around for reads
system.mem_ctrls0.wrPerTurnAround::48-49            2      0.00%    100.00% # Writes before turning the bus around for reads
system.mem_ctrls0.wrPerTurnAround::50-51            1      0.00%    100.00% # Writes before turning the bus around for reads
system.mem_ctrls0.wrPerTurnAround::52-53            1      0.00%    100.00% # Writes before turning the bus around for reads
system.mem_ctrls0.wrPerTurnAround::54-55            1      0.00%    100.00% # Writes before turning the bus around for reads
system.mem_ctrls0.wrPerTurnAround::56-57            1      0.00%    100.00% # Writes before turning the bus around for reads
system.mem_ctrls0.wrPerTurnAround::58-59            1      0.00%    100.00% # Writes before turning the bus around for reads
system.mem_ctrls0.wrPerTurnAround::78-79            1      0.00%    100.00% # Writes before turning the bus around for reads
system.mem_ctrls0.wrPerTurnAround::80-81            1      0.00%    100.00% # Writes before turning the bus around for reads
system.mem_ctrls0.wrPerTurnAround::90-91            1      0.00%    100.00% # Writes before turning the bus around for reads
system.mem_ctrls0.wrPerTurnAround::96-97            3      0.00%    100.00% # Writes before turning the bus around for reads
system.mem_ctrls0.wrPerTurnAround::100-101            1      0.00%    100.00% # Writes before turning the bus around for reads
system.mem_ctrls0.wrPerTurnAround::104-105            1      0.00%    100.00% # Writes before turning the bus around for reads
system.mem_ctrls0.wrPerTurnAround::118-119            1      0.00%    100.00% # Writes before turning the bus around for reads
system.mem_ctrls0.wrPerTurnAround::total       298921                       # Writes before turning the bus around for reads
system.mem_ctrls0.totQLat                264383906559                       # Total ticks spent queuing
system.mem_ctrls0.totMemAccLat           444189300309                       # Total ticks spent from burst creation until serviced by the DRAM
system.mem_ctrls0.totBusLat               47948105000                       # Total ticks spent in databus transfers
system.mem_ctrls0.avgQLat                    27569.80                       # Average queueing delay per DRAM burst
system.mem_ctrls0.avgBusLat                   5000.00                       # Average bus latency per DRAM burst
system.mem_ctrls0.avgMemAccLat               46319.80                       # Average memory access latency per DRAM burst
system.mem_ctrls0.avgRdBW                      196.75                       # Average DRAM read bandwidth in MiByte/s
system.mem_ctrls0.avgWrBW                      105.58                       # Average achieved write bandwidth in MiByte/s
system.mem_ctrls0.avgRdBWSys                   196.75                       # Average system read bandwidth in MiByte/s
system.mem_ctrls0.avgWrBWSys                   105.58                       # Average system write bandwidth in MiByte/s
system.mem_ctrls0.peakBW                     12800.00                       # Theoretical peak bandwidth in MiByte/s
system.mem_ctrls0.busUtil                        2.36                       # Data bus utilization in percentage
system.mem_ctrls0.busUtilRead                    1.54                       # Data bus utilization in percentage for reads
system.mem_ctrls0.busUtilWrite                   0.82                       # Data bus utilization in percentage for writes
system.mem_ctrls0.avgRdQLen                      1.06                       # Average read queue length when enqueuing
system.mem_ctrls0.avgWrQLen                     24.78                       # Average write queue length when enqueuing
system.mem_ctrls0.readRowHits                 3365537                       # Number of row buffer hits during reads
system.mem_ctrls0.writeRowHits                1048124                       # Number of row buffer hits during writes
system.mem_ctrls0.readRowHitRate                35.10                       # Row buffer hit rate for reads
system.mem_ctrls0.writeRowHitRate               20.37                       # Row buffer hit rate for writes
system.mem_ctrls0.avgGap                    211686.99                       # Average gap between requests
system.mem_ctrls0.pageHitRate                   29.95                       # Row buffer hit rate, read and write combined
system.mem_ctrls0_0.actEnergy             36853645500                       # Energy for activate commands per rank (pJ)
system.mem_ctrls0_0.preEnergy             19588173330                       # Energy for precharge commands per rank (pJ)
system.mem_ctrls0_0.readEnergy            34249680360                       # Energy for read commands per rank (pJ)
system.mem_ctrls0_0.writeEnergy           13437579780                       # Energy for write commands per rank (pJ)
system.mem_ctrls0_0.refreshEnergy        245789618880.000061                       # Energy for refresh commands per rank (pJ)
system.mem_ctrls0_0.actBackEnergy        226915664490                       # Energy for active background per rank (pJ)
system.mem_ctrls0_0.preBackEnergy          6502425120                       # Energy for precharge background per rank (pJ)
system.mem_ctrls0_0.actPowerDownEnergy   1036152279120                       # Energy for active power-down per rank (pJ)
system.mem_ctrls0_0.prePowerDownEnergy   104828608800                       # Energy for precharge power-down per rank (pJ)
system.mem_ctrls0_0.selfRefreshEnergy     18398495565                       # Energy for self refresh per rank (pJ)
system.mem_ctrls0_0.totalEnergy          1742746462245                       # Total energy per rank (pJ)
system.mem_ctrls0_0.averagePower           558.689452                       # Core power per rank (mW)
system.mem_ctrls0_0.totalIdleTime        2604720891214                       # Total Idle time Per DRAM Rank
system.mem_ctrls0_0.memoryStateTime::IDLE   4290752756                       # Time in different power states
system.mem_ctrls0_0.memoryStateTime::REF 104019662000                       # Time in different power states
system.mem_ctrls0_0.memoryStateTime::SREF  59469485259                       # Time in different power states
system.mem_ctrls0_0.memoryStateTime::PRE_PDN 272992278525                       # Time in different power states
system.mem_ctrls0_0.memoryStateTime::ACT 406315671455                       # Time in different power states
system.mem_ctrls0_0.memoryStateTime::ACT_PDN 2272259479539                       # Time in different power states
system.mem_ctrls0_1.actEnergy             36845191740                       # Energy for activate commands per rank (pJ)
system.mem_ctrls0_1.preEnergy             19583676255                       # Energy for precharge commands per rank (pJ)
system.mem_ctrls0_1.readEnergy            34220213580                       # Energy for read commands per rank (pJ)
system.mem_ctrls0_1.writeEnergy           13424571540                       # Energy for write commands per rank (pJ)
system.mem_ctrls0_1.refreshEnergy        245501352720.000061                       # Energy for refresh commands per rank (pJ)
system.mem_ctrls0_1.actBackEnergy        226229756130                       # Energy for active background per rank (pJ)
system.mem_ctrls0_1.preBackEnergy          6478779360                       # Energy for precharge background per rank (pJ)
system.mem_ctrls0_1.actPowerDownEnergy   1037064688950                       # Energy for active power-down per rank (pJ)
system.mem_ctrls0_1.prePowerDownEnergy   104214215520                       # Energy for precharge power-down per rank (pJ)
system.mem_ctrls0_1.selfRefreshEnergy     18488640645                       # Energy for self refresh per rank (pJ)
system.mem_ctrls0_1.totalEnergy          1742081839260                       # Total energy per rank (pJ)
system.mem_ctrls0_1.averagePower           558.476387                       # Core power per rank (mW)
system.mem_ctrls0_1.totalIdleTime        2606293959114                       # Total Idle time Per DRAM Rank
system.mem_ctrls0_1.memoryStateTime::IDLE   4193699058                       # Time in different power states
system.mem_ctrls0_1.memoryStateTime::REF 103895724000                       # Time in different power states
system.mem_ctrls0_1.memoryStateTime::SREF  60633383413                       # Time in different power states
system.mem_ctrls0_1.memoryStateTime::PRE_PDN 271390904659                       # Time in different power states
system.mem_ctrls0_1.memoryStateTime::ACT 404963438743                       # Time in different power states
system.mem_ctrls0_1.memoryStateTime::ACT_PDN 2274270179661                       # Time in different power states
system.mem_ctrls1.pwrStateResidencyTicks::UNDEFINED 146596335646608                       # Cumulative time (in ticks) in various power states
system.mem_ctrls1.bytes_read::cpu.inst             64                       # Number of bytes read from this memory
system.mem_ctrls1.bytes_read::cpu.data             64                       # Number of bytes read from this memory
system.mem_ctrls1.bytes_read::switch_cpus.inst        20288                       # Number of bytes read from this memory
system.mem_ctrls1.bytes_read::switch_cpus.data    440852160                       # Number of bytes read from this memory
system.mem_ctrls1.bytes_read::switch_cpus_1.inst        26496                       # Number of bytes read from this memory
system.mem_ctrls1.bytes_read::switch_cpus_1.data    172793088                       # Number of bytes read from this memory
system.mem_ctrls1.bytes_read::total         613692160                       # Number of bytes read from this memory
system.mem_ctrls1.bytes_inst_read::cpu.inst           64                       # Number of instructions bytes read from this memory
system.mem_ctrls1.bytes_inst_read::switch_cpus.inst        20288                       # Number of instructions bytes read from this memory
system.mem_ctrls1.bytes_inst_read::switch_cpus_1.inst        26496                       # Number of instructions bytes read from this memory
system.mem_ctrls1.bytes_inst_read::total        46848                       # Number of instructions bytes read from this memory
system.mem_ctrls1.bytes_written::writebacks    329349824                       # Number of bytes written to this memory
system.mem_ctrls1.bytes_written::total      329349824                       # Number of bytes written to this memory
system.mem_ctrls1.num_reads::cpu.inst               1                       # Number of read requests responded to by this memory
system.mem_ctrls1.num_reads::cpu.data               1                       # Number of read requests responded to by this memory
system.mem_ctrls1.num_reads::switch_cpus.inst          317                       # Number of read requests responded to by this memory
system.mem_ctrls1.num_reads::switch_cpus.data      6888315                       # Number of read requests responded to by this memory
system.mem_ctrls1.num_reads::switch_cpus_1.inst          414                       # Number of read requests responded to by this memory
system.mem_ctrls1.num_reads::switch_cpus_1.data      2699892                       # Number of read requests responded to by this memory
system.mem_ctrls1.num_reads::total            9588940                       # Number of read requests responded to by this memory
system.mem_ctrls1.num_writes::writebacks      5146091                       # Number of write requests responded to by this memory
system.mem_ctrls1.num_writes::total           5146091                       # Number of write requests responded to by this memory
system.mem_ctrls1.bw_read::cpu.inst                21                       # Total read bandwidth from this memory (bytes/s)
system.mem_ctrls1.bw_read::cpu.data                21                       # Total read bandwidth from this memory (bytes/s)
system.mem_ctrls1.bw_read::switch_cpus.inst         6504                       # Total read bandwidth from this memory (bytes/s)
system.mem_ctrls1.bw_read::switch_cpus.data    141328334                       # Total read bandwidth from this memory (bytes/s)
system.mem_ctrls1.bw_read::switch_cpus_1.inst         8494                       # Total read bandwidth from this memory (bytes/s)
system.mem_ctrls1.bw_read::switch_cpus_1.data     55393988                       # Total read bandwidth from this memory (bytes/s)
system.mem_ctrls1.bw_read::total            196737360                       # Total read bandwidth from this memory (bytes/s)
system.mem_ctrls1.bw_inst_read::cpu.inst           21                       # Instruction read bandwidth from this memory (bytes/s)
system.mem_ctrls1.bw_inst_read::switch_cpus.inst         6504                       # Instruction read bandwidth from this memory (bytes/s)
system.mem_ctrls1.bw_inst_read::switch_cpus_1.inst         8494                       # Instruction read bandwidth from this memory (bytes/s)
system.mem_ctrls1.bw_inst_read::total           15019                       # Instruction read bandwidth from this memory (bytes/s)
system.mem_ctrls1.bw_write::writebacks      105582928                       # Write bandwidth from this memory (bytes/s)
system.mem_ctrls1.bw_write::total           105582928                       # Write bandwidth from this memory (bytes/s)
system.mem_ctrls1.bw_total::writebacks      105582928                       # Total bandwidth to/from this memory (bytes/s)
system.mem_ctrls1.bw_total::cpu.inst               21                       # Total bandwidth to/from this memory (bytes/s)
system.mem_ctrls1.bw_total::cpu.data               21                       # Total bandwidth to/from this memory (bytes/s)
system.mem_ctrls1.bw_total::switch_cpus.inst         6504                       # Total bandwidth to/from this memory (bytes/s)
system.mem_ctrls1.bw_total::switch_cpus.data    141328334                       # Total bandwidth to/from this memory (bytes/s)
system.mem_ctrls1.bw_total::switch_cpus_1.inst         8494                       # Total bandwidth to/from this memory (bytes/s)
system.mem_ctrls1.bw_total::switch_cpus_1.data     55393988                       # Total bandwidth to/from this memory (bytes/s)
system.mem_ctrls1.bw_total::total           302320288                       # Total bandwidth to/from this memory (bytes/s)
system.mem_ctrls1.readReqs                    9588940                       # Number of read requests accepted
system.mem_ctrls1.writeReqs                   5146091                       # Number of write requests accepted
system.mem_ctrls1.readBursts                  9588940                       # Number of DRAM read bursts, including those serviced by the write queue
system.mem_ctrls1.writeBursts                 5146091                       # Number of DRAM write bursts, including those merged in the write queue
system.mem_ctrls1.bytesReadDRAM             613691456                       # Total number of bytes read from DRAM
system.mem_ctrls1.bytesReadWrQ                    704                       # Total number of bytes read from write queue
system.mem_ctrls1.bytesWritten              329348608                       # Total number of bytes written to DRAM
system.mem_ctrls1.bytesReadSys              613692160                       # Total read bytes from the system interface side
system.mem_ctrls1.bytesWrittenSys           329349824                       # Total written bytes from the system interface side
system.mem_ctrls1.servicedByWrQ                    11                       # Number of DRAM read bursts serviced by the write queue
system.mem_ctrls1.mergedWrBursts                    0                       # Number of DRAM write bursts merged with an existing one
system.mem_ctrls1.neitherReadNorWriteReqs            0                       # Number of requests that are neither read nor write
system.mem_ctrls1.perBankRdBursts::0           600490                       # Per bank write bursts
system.mem_ctrls1.perBankRdBursts::1           599753                       # Per bank write bursts
system.mem_ctrls1.perBankRdBursts::2           597276                       # Per bank write bursts
system.mem_ctrls1.perBankRdBursts::3           599355                       # Per bank write bursts
system.mem_ctrls1.perBankRdBursts::4           601230                       # Per bank write bursts
system.mem_ctrls1.perBankRdBursts::5           601118                       # Per bank write bursts
system.mem_ctrls1.perBankRdBursts::6           600121                       # Per bank write bursts
system.mem_ctrls1.perBankRdBursts::7           597636                       # Per bank write bursts
system.mem_ctrls1.perBankRdBursts::8           597944                       # Per bank write bursts
system.mem_ctrls1.perBankRdBursts::9           598213                       # Per bank write bursts
system.mem_ctrls1.perBankRdBursts::10          599769                       # Per bank write bursts
system.mem_ctrls1.perBankRdBursts::11          600057                       # Per bank write bursts
system.mem_ctrls1.perBankRdBursts::12          598500                       # Per bank write bursts
system.mem_ctrls1.perBankRdBursts::13          597698                       # Per bank write bursts
system.mem_ctrls1.perBankRdBursts::14          598990                       # Per bank write bursts
system.mem_ctrls1.perBankRdBursts::15          600779                       # Per bank write bursts
system.mem_ctrls1.perBankWrBursts::0           322813                       # Per bank write bursts
system.mem_ctrls1.perBankWrBursts::1           322028                       # Per bank write bursts
system.mem_ctrls1.perBankWrBursts::2           321343                       # Per bank write bursts
system.mem_ctrls1.perBankWrBursts::3           321650                       # Per bank write bursts
system.mem_ctrls1.perBankWrBursts::4           322264                       # Per bank write bursts
system.mem_ctrls1.perBankWrBursts::5           322115                       # Per bank write bursts
system.mem_ctrls1.perBankWrBursts::6           321807                       # Per bank write bursts
system.mem_ctrls1.perBankWrBursts::7           320139                       # Per bank write bursts
system.mem_ctrls1.perBankWrBursts::8           320231                       # Per bank write bursts
system.mem_ctrls1.perBankWrBursts::9           320454                       # Per bank write bursts
system.mem_ctrls1.perBankWrBursts::10          321965                       # Per bank write bursts
system.mem_ctrls1.perBankWrBursts::11          322409                       # Per bank write bursts
system.mem_ctrls1.perBankWrBursts::12          321657                       # Per bank write bursts
system.mem_ctrls1.perBankWrBursts::13          320713                       # Per bank write bursts
system.mem_ctrls1.perBankWrBursts::14          321828                       # Per bank write bursts
system.mem_ctrls1.perBankWrBursts::15          322656                       # Per bank write bursts
system.mem_ctrls1.numRdRetry                        0                       # Number of times read queue was full causing retry
system.mem_ctrls1.numWrRetry                        0                       # Number of times write queue was full causing retry
system.mem_ctrls1.totGap                 3119346024507                       # Total gap between requests
system.mem_ctrls1.readPktSize::0                    0                       # Read request sizes (log2)
system.mem_ctrls1.readPktSize::1                    0                       # Read request sizes (log2)
system.mem_ctrls1.readPktSize::2                    0                       # Read request sizes (log2)
system.mem_ctrls1.readPktSize::3                    0                       # Read request sizes (log2)
system.mem_ctrls1.readPktSize::4                    0                       # Read request sizes (log2)
system.mem_ctrls1.readPktSize::5                    0                       # Read request sizes (log2)
system.mem_ctrls1.readPktSize::6              9588940                       # Read request sizes (log2)
system.mem_ctrls1.writePktSize::0                   0                       # Write request sizes (log2)
system.mem_ctrls1.writePktSize::1                   0                       # Write request sizes (log2)
system.mem_ctrls1.writePktSize::2                   0                       # Write request sizes (log2)
system.mem_ctrls1.writePktSize::3                   0                       # Write request sizes (log2)
system.mem_ctrls1.writePktSize::4                   0                       # Write request sizes (log2)
system.mem_ctrls1.writePktSize::5                   0                       # Write request sizes (log2)
system.mem_ctrls1.writePktSize::6             5146091                       # Write request sizes (log2)
system.mem_ctrls1.rdQLenPdf::0                8693029                       # What read queue length does an incoming req see
system.mem_ctrls1.rdQLenPdf::1                 657952                       # What read queue length does an incoming req see
system.mem_ctrls1.rdQLenPdf::2                 208155                       # What read queue length does an incoming req see
system.mem_ctrls1.rdQLenPdf::3                  29793                       # What read queue length does an incoming req see
system.mem_ctrls1.rdQLenPdf::4                      0                       # What read queue length does an incoming req see
system.mem_ctrls1.rdQLenPdf::5                      0                       # What read queue length does an incoming req see
system.mem_ctrls1.rdQLenPdf::6                      0                       # What read queue length does an incoming req see
system.mem_ctrls1.rdQLenPdf::7                      0                       # What read queue length does an incoming req see
system.mem_ctrls1.rdQLenPdf::8                      0                       # What read queue length does an incoming req see
system.mem_ctrls1.rdQLenPdf::9                      0                       # What read queue length does an incoming req see
system.mem_ctrls1.rdQLenPdf::10                     0                       # What read queue length does an incoming req see
system.mem_ctrls1.rdQLenPdf::11                     0                       # What read queue length does an incoming req see
system.mem_ctrls1.rdQLenPdf::12                     0                       # What read queue length does an incoming req see
system.mem_ctrls1.rdQLenPdf::13                     0                       # What read queue length does an incoming req see
system.mem_ctrls1.rdQLenPdf::14                     0                       # What read queue length does an incoming req see
system.mem_ctrls1.rdQLenPdf::15                     0                       # What read queue length does an incoming req see
system.mem_ctrls1.rdQLenPdf::16                     0                       # What read queue length does an incoming req see
system.mem_ctrls1.rdQLenPdf::17                     0                       # What read queue length does an incoming req see
system.mem_ctrls1.rdQLenPdf::18                     0                       # What read queue length does an incoming req see
system.mem_ctrls1.rdQLenPdf::19                     0                       # What read queue length does an incoming req see
system.mem_ctrls1.rdQLenPdf::20                     0                       # What read queue length does an incoming req see
system.mem_ctrls1.rdQLenPdf::21                     0                       # What read queue length does an incoming req see
system.mem_ctrls1.rdQLenPdf::22                     0                       # What read queue length does an incoming req see
system.mem_ctrls1.rdQLenPdf::23                     0                       # What read queue length does an incoming req see
system.mem_ctrls1.rdQLenPdf::24                     0                       # What read queue length does an incoming req see
system.mem_ctrls1.rdQLenPdf::25                     0                       # What read queue length does an incoming req see
system.mem_ctrls1.rdQLenPdf::26                     0                       # What read queue length does an incoming req see
system.mem_ctrls1.rdQLenPdf::27                     0                       # What read queue length does an incoming req see
system.mem_ctrls1.rdQLenPdf::28                     0                       # What read queue length does an incoming req see
system.mem_ctrls1.rdQLenPdf::29                     0                       # What read queue length does an incoming req see
system.mem_ctrls1.rdQLenPdf::30                     0                       # What read queue length does an incoming req see
system.mem_ctrls1.rdQLenPdf::31                     0                       # What read queue length does an incoming req see
system.mem_ctrls1.wrQLenPdf::0                      2                       # What write queue length does an incoming req see
system.mem_ctrls1.wrQLenPdf::1                      2                       # What write queue length does an incoming req see
system.mem_ctrls1.wrQLenPdf::2                      2                       # What write queue length does an incoming req see
system.mem_ctrls1.wrQLenPdf::3                      2                       # What write queue length does an incoming req see
system.mem_ctrls1.wrQLenPdf::4                      2                       # What write queue length does an incoming req see
system.mem_ctrls1.wrQLenPdf::5                      2                       # What write queue length does an incoming req see
system.mem_ctrls1.wrQLenPdf::6                      2                       # What write queue length does an incoming req see
system.mem_ctrls1.wrQLenPdf::7                      2                       # What write queue length does an incoming req see
system.mem_ctrls1.wrQLenPdf::8                      2                       # What write queue length does an incoming req see
system.mem_ctrls1.wrQLenPdf::9                      2                       # What write queue length does an incoming req see
system.mem_ctrls1.wrQLenPdf::10                     2                       # What write queue length does an incoming req see
system.mem_ctrls1.wrQLenPdf::11                     2                       # What write queue length does an incoming req see
system.mem_ctrls1.wrQLenPdf::12                     2                       # What write queue length does an incoming req see
system.mem_ctrls1.wrQLenPdf::13                     2                       # What write queue length does an incoming req see
system.mem_ctrls1.wrQLenPdf::14                     2                       # What write queue length does an incoming req see
system.mem_ctrls1.wrQLenPdf::15                166948                       # What write queue length does an incoming req see
system.mem_ctrls1.wrQLenPdf::16                176556                       # What write queue length does an incoming req see
system.mem_ctrls1.wrQLenPdf::17                284754                       # What write queue length does an incoming req see
system.mem_ctrls1.wrQLenPdf::18                297878                       # What write queue length does an incoming req see
system.mem_ctrls1.wrQLenPdf::19                300231                       # What write queue length does an incoming req see
system.mem_ctrls1.wrQLenPdf::20                300492                       # What write queue length does an incoming req see
system.mem_ctrls1.wrQLenPdf::21                300592                       # What write queue length does an incoming req see
system.mem_ctrls1.wrQLenPdf::22                300836                       # What write queue length does an incoming req see
system.mem_ctrls1.wrQLenPdf::23                301414                       # What write queue length does an incoming req see
system.mem_ctrls1.wrQLenPdf::24                301283                       # What write queue length does an incoming req see
system.mem_ctrls1.wrQLenPdf::25                300996                       # What write queue length does an incoming req see
system.mem_ctrls1.wrQLenPdf::26                301030                       # What write queue length does an incoming req see
system.mem_ctrls1.wrQLenPdf::27                301134                       # What write queue length does an incoming req see
system.mem_ctrls1.wrQLenPdf::28                301422                       # What write queue length does an incoming req see
system.mem_ctrls1.wrQLenPdf::29                302520                       # What write queue length does an incoming req see
system.mem_ctrls1.wrQLenPdf::30                307095                       # What write queue length does an incoming req see
system.mem_ctrls1.wrQLenPdf::31                300274                       # What write queue length does an incoming req see
system.mem_ctrls1.wrQLenPdf::32                299508                       # What write queue length does an incoming req see
system.mem_ctrls1.wrQLenPdf::33                   445                       # What write queue length does an incoming req see
system.mem_ctrls1.wrQLenPdf::34                   122                       # What write queue length does an incoming req see
system.mem_ctrls1.wrQLenPdf::35                    79                       # What write queue length does an incoming req see
system.mem_ctrls1.wrQLenPdf::36                    55                       # What write queue length does an incoming req see
system.mem_ctrls1.wrQLenPdf::37                    63                       # What write queue length does an incoming req see
system.mem_ctrls1.wrQLenPdf::38                    59                       # What write queue length does an incoming req see
system.mem_ctrls1.wrQLenPdf::39                    41                       # What write queue length does an incoming req see
system.mem_ctrls1.wrQLenPdf::40                    29                       # What write queue length does an incoming req see
system.mem_ctrls1.wrQLenPdf::41                    40                       # What write queue length does an incoming req see
system.mem_ctrls1.wrQLenPdf::42                    24                       # What write queue length does an incoming req see
system.mem_ctrls1.wrQLenPdf::43                    30                       # What write queue length does an incoming req see
system.mem_ctrls1.wrQLenPdf::44                    38                       # What write queue length does an incoming req see
system.mem_ctrls1.wrQLenPdf::45                    19                       # What write queue length does an incoming req see
system.mem_ctrls1.wrQLenPdf::46                    13                       # What write queue length does an incoming req see
system.mem_ctrls1.wrQLenPdf::47                    10                       # What write queue length does an incoming req see
system.mem_ctrls1.wrQLenPdf::48                    10                       # What write queue length does an incoming req see
system.mem_ctrls1.wrQLenPdf::49                     9                       # What write queue length does an incoming req see
system.mem_ctrls1.wrQLenPdf::50                     5                       # What write queue length does an incoming req see
system.mem_ctrls1.wrQLenPdf::51                     2                       # What write queue length does an incoming req see
system.mem_ctrls1.wrQLenPdf::52                     2                       # What write queue length does an incoming req see
system.mem_ctrls1.wrQLenPdf::53                     1                       # What write queue length does an incoming req see
system.mem_ctrls1.wrQLenPdf::54                     1                       # What write queue length does an incoming req see
system.mem_ctrls1.wrQLenPdf::55                     1                       # What write queue length does an incoming req see
system.mem_ctrls1.wrQLenPdf::56                     0                       # What write queue length does an incoming req see
system.mem_ctrls1.wrQLenPdf::57                     0                       # What write queue length does an incoming req see
system.mem_ctrls1.wrQLenPdf::58                     0                       # What write queue length does an incoming req see
system.mem_ctrls1.wrQLenPdf::59                     0                       # What write queue length does an incoming req see
system.mem_ctrls1.wrQLenPdf::60                     0                       # What write queue length does an incoming req see
system.mem_ctrls1.wrQLenPdf::61                     0                       # What write queue length does an incoming req see
system.mem_ctrls1.wrQLenPdf::62                     0                       # What write queue length does an incoming req see
system.mem_ctrls1.wrQLenPdf::63                     0                       # What write queue length does an incoming req see
system.mem_ctrls1.bytesPerActivate::samples     10320879                       # Bytes accessed per row activation
system.mem_ctrls1.bytesPerActivate::mean    91.372038                       # Bytes accessed per row activation
system.mem_ctrls1.bytesPerActivate::gmean    81.570312                       # Bytes accessed per row activation
system.mem_ctrls1.bytesPerActivate::stdev    56.783514                       # Bytes accessed per row activation
system.mem_ctrls1.bytesPerActivate::0-127      7507739     72.74%     72.74% # Bytes accessed per row activation
system.mem_ctrls1.bytesPerActivate::128-255      2420951     23.46%     96.20% # Bytes accessed per row activation
system.mem_ctrls1.bytesPerActivate::256-383       344908      3.34%     99.54% # Bytes accessed per row activation
system.mem_ctrls1.bytesPerActivate::384-511        35039      0.34%     99.88% # Bytes accessed per row activation
system.mem_ctrls1.bytesPerActivate::512-639         5639      0.05%     99.94% # Bytes accessed per row activation
system.mem_ctrls1.bytesPerActivate::640-767         1913      0.02%     99.95% # Bytes accessed per row activation
system.mem_ctrls1.bytesPerActivate::768-895         1459      0.01%     99.97% # Bytes accessed per row activation
system.mem_ctrls1.bytesPerActivate::896-1023          681      0.01%     99.98% # Bytes accessed per row activation
system.mem_ctrls1.bytesPerActivate::1024-1151         2550      0.02%    100.00% # Bytes accessed per row activation
system.mem_ctrls1.bytesPerActivate::total     10320879                       # Bytes accessed per row activation
system.mem_ctrls1.rdPerTurnAround::samples       298904                       # Reads before turning the bus around for writes
system.mem_ctrls1.rdPerTurnAround::mean     31.983185                       # Reads before turning the bus around for writes
system.mem_ctrls1.rdPerTurnAround::stdev    70.550929                       # Reads before turning the bus around for writes
system.mem_ctrls1.rdPerTurnAround::0-1023       298876     99.99%     99.99% # Reads before turning the bus around for writes
system.mem_ctrls1.rdPerTurnAround::1024-2047           20      0.01%    100.00% # Reads before turning the bus around for writes
system.mem_ctrls1.rdPerTurnAround::2048-3071            1      0.00%    100.00% # Reads before turning the bus around for writes
system.mem_ctrls1.rdPerTurnAround::3072-4095            2      0.00%    100.00% # Reads before turning the bus around for writes
system.mem_ctrls1.rdPerTurnAround::4096-5119            1      0.00%    100.00% # Reads before turning the bus around for writes
system.mem_ctrls1.rdPerTurnAround::5120-6143            1      0.00%    100.00% # Reads before turning the bus around for writes
system.mem_ctrls1.rdPerTurnAround::9216-10239            1      0.00%    100.00% # Reads before turning the bus around for writes
system.mem_ctrls1.rdPerTurnAround::21504-22527            1      0.00%    100.00% # Reads before turning the bus around for writes
system.mem_ctrls1.rdPerTurnAround::27648-28671            1      0.00%    100.00% # Reads before turning the bus around for writes
system.mem_ctrls1.rdPerTurnAround::total       298904                       # Reads before turning the bus around for writes
system.mem_ctrls1.wrPerTurnAround::samples       298904                       # Writes before turning the bus around for reads
system.mem_ctrls1.wrPerTurnAround::mean     17.216471                       # Writes before turning the bus around for reads
system.mem_ctrls1.wrPerTurnAround::gmean    17.180460                       # Writes before turning the bus around for reads
system.mem_ctrls1.wrPerTurnAround::stdev     1.214429                       # Writes before turning the bus around for reads
system.mem_ctrls1.wrPerTurnAround::16-17       130684     43.72%     43.72% # Writes before turning the bus around for reads
system.mem_ctrls1.wrPerTurnAround::18-19       166030     55.55%     99.27% # Writes before turning the bus around for reads
system.mem_ctrls1.wrPerTurnAround::20-21         2023      0.68%     99.94% # Writes before turning the bus around for reads
system.mem_ctrls1.wrPerTurnAround::22-23           87      0.03%     99.97% # Writes before turning the bus around for reads
system.mem_ctrls1.wrPerTurnAround::24-25           20      0.01%     99.98% # Writes before turning the bus around for reads
system.mem_ctrls1.wrPerTurnAround::26-27           11      0.00%     99.98% # Writes before turning the bus around for reads
system.mem_ctrls1.wrPerTurnAround::28-29            2      0.00%     99.98% # Writes before turning the bus around for reads
system.mem_ctrls1.wrPerTurnAround::30-31            6      0.00%     99.99% # Writes before turning the bus around for reads
system.mem_ctrls1.wrPerTurnAround::32-33            7      0.00%     99.99% # Writes before turning the bus around for reads
system.mem_ctrls1.wrPerTurnAround::34-35            5      0.00%     99.99% # Writes before turning the bus around for reads
system.mem_ctrls1.wrPerTurnAround::36-37            2      0.00%     99.99% # Writes before turning the bus around for reads
system.mem_ctrls1.wrPerTurnAround::38-39            2      0.00%     99.99% # Writes before turning the bus around for reads
system.mem_ctrls1.wrPerTurnAround::40-41            3      0.00%     99.99% # Writes before turning the bus around for reads
system.mem_ctrls1.wrPerTurnAround::42-43            3      0.00%     99.99% # Writes before turning the bus around for reads
system.mem_ctrls1.wrPerTurnAround::44-45            3      0.00%     99.99% # Writes before turning the bus around for reads
system.mem_ctrls1.wrPerTurnAround::56-57            1      0.00%     99.99% # Writes before turning the bus around for reads
system.mem_ctrls1.wrPerTurnAround::58-59            1      0.00%    100.00% # Writes before turning the bus around for reads
system.mem_ctrls1.wrPerTurnAround::60-61            1      0.00%    100.00% # Writes before turning the bus around for reads
system.mem_ctrls1.wrPerTurnAround::68-69            1      0.00%    100.00% # Writes before turning the bus around for reads
system.mem_ctrls1.wrPerTurnAround::76-77            1      0.00%    100.00% # Writes before turning the bus around for reads
system.mem_ctrls1.wrPerTurnAround::78-79            1      0.00%    100.00% # Writes before turning the bus around for reads
system.mem_ctrls1.wrPerTurnAround::80-81            1      0.00%    100.00% # Writes before turning the bus around for reads
system.mem_ctrls1.wrPerTurnAround::86-87            1      0.00%    100.00% # Writes before turning the bus around for reads
system.mem_ctrls1.wrPerTurnAround::90-91            1      0.00%    100.00% # Writes before turning the bus around for reads
system.mem_ctrls1.wrPerTurnAround::96-97            1      0.00%    100.00% # Writes before turning the bus around for reads
system.mem_ctrls1.wrPerTurnAround::98-99            1      0.00%    100.00% # Writes before turning the bus around for reads
system.mem_ctrls1.wrPerTurnAround::102-103            1      0.00%    100.00% # Writes before turning the bus around for reads
system.mem_ctrls1.wrPerTurnAround::110-111            1      0.00%    100.00% # Writes before turning the bus around for reads
system.mem_ctrls1.wrPerTurnAround::114-115            1      0.00%    100.00% # Writes before turning the bus around for reads
system.mem_ctrls1.wrPerTurnAround::122-123            1      0.00%    100.00% # Writes before turning the bus around for reads
system.mem_ctrls1.wrPerTurnAround::126-127            1      0.00%    100.00% # Writes before turning the bus around for reads
system.mem_ctrls1.wrPerTurnAround::total       298904                       # Writes before turning the bus around for reads
system.mem_ctrls1.totQLat                264658736332                       # Total ticks spent queuing
system.mem_ctrls1.totMemAccLat           444451155082                       # Total ticks spent from burst creation until serviced by the DRAM
system.mem_ctrls1.totBusLat               47944645000                       # Total ticks spent in databus transfers
system.mem_ctrls1.avgQLat                    27600.45                       # Average queueing delay per DRAM burst
system.mem_ctrls1.avgBusLat                   5000.00                       # Average bus latency per DRAM burst
system.mem_ctrls1.avgMemAccLat               46350.45                       # Average memory access latency per DRAM burst
system.mem_ctrls1.avgRdBW                      196.74                       # Average DRAM read bandwidth in MiByte/s
system.mem_ctrls1.avgWrBW                      105.58                       # Average achieved write bandwidth in MiByte/s
system.mem_ctrls1.avgRdBWSys                   196.74                       # Average system read bandwidth in MiByte/s
system.mem_ctrls1.avgWrBWSys                   105.58                       # Average system write bandwidth in MiByte/s
system.mem_ctrls1.peakBW                     12800.00                       # Theoretical peak bandwidth in MiByte/s
system.mem_ctrls1.busUtil                        2.36                       # Data bus utilization in percentage
system.mem_ctrls1.busUtilRead                    1.54                       # Data bus utilization in percentage for reads
system.mem_ctrls1.busUtilWrite                   0.82                       # Data bus utilization in percentage for writes
system.mem_ctrls1.avgRdQLen                      1.06                       # Average read queue length when enqueuing
system.mem_ctrls1.avgWrQLen                     24.78                       # Average write queue length when enqueuing
system.mem_ctrls1.readRowHits                 3365747                       # Number of row buffer hits during reads
system.mem_ctrls1.writeRowHits                1048370                       # Number of row buffer hits during writes
system.mem_ctrls1.readRowHitRate                35.10                       # Row buffer hit rate for reads
system.mem_ctrls1.writeRowHitRate               20.37                       # Row buffer hit rate for writes
system.mem_ctrls1.avgGap                    211695.93                       # Average gap between requests
system.mem_ctrls1.pageHitRate                   29.96                       # Row buffer hit rate, read and write combined
system.mem_ctrls1_0.actEnergy             36866918760                       # Energy for activate commands per rank (pJ)
system.mem_ctrls1_0.preEnergy             19595224440                       # Energy for precharge commands per rank (pJ)
system.mem_ctrls1_0.readEnergy            34250430060                       # Energy for read commands per rank (pJ)
system.mem_ctrls1_0.writeEnergy           13437109980                       # Energy for write commands per rank (pJ)
system.mem_ctrls1_0.refreshEnergy        245760116160.000061                       # Energy for refresh commands per rank (pJ)
system.mem_ctrls1_0.actBackEnergy        227145875520                       # Energy for active background per rank (pJ)
system.mem_ctrls1_0.preBackEnergy          6490306080                       # Energy for precharge background per rank (pJ)
system.mem_ctrls1_0.actPowerDownEnergy   1035636169770                       # Energy for active power-down per rank (pJ)
system.mem_ctrls1_0.prePowerDownEnergy   105211931520                       # Energy for precharge power-down per rank (pJ)
system.mem_ctrls1_0.selfRefreshEnergy     18262494285                       # Energy for self refresh per rank (pJ)
system.mem_ctrls1_0.totalEnergy          1742686816905                       # Total energy per rank (pJ)
system.mem_ctrls1_0.averagePower           558.670332                       # Core power per rank (mW)
system.mem_ctrls1_0.totalIdleTime        2604238030514                       # Total Idle time Per DRAM Rank
system.mem_ctrls1_0.memoryStateTime::IDLE   4260016684                       # Time in different power states
system.mem_ctrls1_0.memoryStateTime::REF 104006834000                       # Time in different power states
system.mem_ctrls1_0.memoryStateTime::SREF  59129972200                       # Time in different power states
system.mem_ctrls1_0.memoryStateTime::PRE_PDN 273994354668                       # Time in different power states
system.mem_ctrls1_0.memoryStateTime::ACT 406840882442                       # Time in different power states
system.mem_ctrls1_0.memoryStateTime::ACT_PDN 2271115269540                       # Time in different power states
system.mem_ctrls1_1.actEnergy             36824193000                       # Energy for activate commands per rank (pJ)
system.mem_ctrls1_1.preEnergy             19572511365                       # Energy for precharge commands per rank (pJ)
system.mem_ctrls1_1.readEnergy            34214523000                       # Energy for read commands per rank (pJ)
system.mem_ctrls1_1.writeEnergy           13425385860                       # Energy for write commands per rank (pJ)
system.mem_ctrls1_1.refreshEnergy        245498894160.000061                       # Energy for refresh commands per rank (pJ)
system.mem_ctrls1_1.actBackEnergy        226419536490                       # Energy for active background per rank (pJ)
system.mem_ctrls1_1.preBackEnergy          6478464480                       # Energy for precharge background per rank (pJ)
system.mem_ctrls1_1.actPowerDownEnergy   1037135196810                       # Energy for active power-down per rank (pJ)
system.mem_ctrls1_1.prePowerDownEnergy   103821098400                       # Energy for precharge power-down per rank (pJ)
system.mem_ctrls1_1.selfRefreshEnergy     18630036045                       # Energy for self refresh per rank (pJ)
system.mem_ctrls1_1.totalEnergy          1742051957340                       # Total energy per rank (pJ)
system.mem_ctrls1_1.averagePower           558.466810                       # Core power per rank (mW)
system.mem_ctrls1_1.totalIdleTime        2605873909941                       # Total Idle time Per DRAM Rank
system.mem_ctrls1_1.memoryStateTime::IDLE   4210329979                       # Time in different power states
system.mem_ctrls1_1.memoryStateTime::REF 103895020000                       # Time in different power states
system.mem_ctrls1_1.memoryStateTime::SREF  61084077953                       # Time in different power states
system.mem_ctrls1_1.memoryStateTime::PRE_PDN 270369281023                       # Time in different power states
system.mem_ctrls1_1.memoryStateTime::ACT 405367037186                       # Time in different power states
system.mem_ctrls1_1.memoryStateTime::ACT_PDN 2274421583393                       # Time in different power states
system.pwrStateResidencyTicks::UNDEFINED 146596335646608                       # Cumulative time (in ticks) in various power states
system.cpu.branchPred.lookups                       0                       # Number of BP lookups
system.cpu.branchPred.condPredicted                 0                       # Number of conditional branches predicted
system.cpu.branchPred.condIncorrect                 0                       # Number of conditional branches incorrect
system.cpu.branchPred.BTBLookups                    0                       # Number of BTB lookups
system.cpu.branchPred.BTBHits                       0                       # Number of BTB hits
system.cpu.branchPred.BTBCorrect                    0                       # Number of correct BTB predictions (this stat may not work properly.
[...]
system.switch_cpus_1.iq.int_inst_queue_wakeup_accesses    225079951                       # Number of integer instruction queue wakeup accesses
system.switch_cpus_1.iq.fp_inst_queue_reads    705615761                       # Number of floating instruction queue reads
system.switch_cpus_1.iq.fp_inst_queue_writes    375482905                       # Number of floating instruction queue writes
system.switch_cpus_1.iq.fp_inst_queue_wakeup_accesses    328471749                       # Number of floating instruction queue wakeup accesses
system.switch_cpus_1.iq.int_alu_accesses    241067801                       # Number of integer alu accesses
system.switch_cpus_1.iq.fp_alu_accesses     359904305                       # Number of floating point alu accesses
system.switch_cpus_1.iew.lsq.thread0.forwLoads      2637697                       # Number of loads that had data forwarded from stores
system.switch_cpus_1.iew.lsq.thread0.invAddrLoads            0                       # Number of loads ignored due to an invalid address
system.switch_cpus_1.iew.lsq.thread0.squashedLoads     26546075                       # Number of loads squashed
system.switch_cpus_1.iew.lsq.thread0.ignoredResponses          245                       # Number of memory responses ignored because the instruction is squashed
system.switch_cpus_1.iew.lsq.thread0.memOrderViolation         1943                       # Number of memory ordering violations
system.switch_cpus_1.iew.lsq.thread0.squashedStores      4445635                       # Number of stores squashed
system.switch_cpus_1.iew.lsq.thread0.invAddrSwpfs            0                       # Number of software prefetches ignored due to an invalid address
system.switch_cpus_1.iew.lsq.thread0.blockedLoads            0                       # Number of blocked loads due to partial load-store forwarding
system.switch_cpus_1.iew.lsq.thread0.rescheduledLoads            0                       # Number of loads that were rescheduled
system.switch_cpus_1.iew.lsq.thread0.cacheBlocked     19335856                       # Number of times an access to memory failed due to the cache being blocked
system.switch_cpus_1.iew.iewIdleCycles              0                       # Number of cycles IEW is idle
system.switch_cpus_1.iew.iewSquashCycles       856481                       # Number of cycles IEW is squashing
system.switch_cpus_1.iew.iewBlockCycles      33950503                       # Number of cycles IEW is blocking
system.switch_cpus_1.iew.iewUnblockCycles    302691560                       # Number of cycles IEW is unblocking
system.switch_cpus_1.iew.iewDispatchedInsts    576123738                       # Number of instructions dispatched to IQ
system.switch_cpus_1.iew.iewDispSquashedInsts        15434                       # Number of squashed instructions skipped by dispatch
system.switch_cpus_1.iew.iewDispLoadInsts    216796889                       # Number of dispatched load instructions
system.switch_cpus_1.iew.iewDispStoreInsts     30328008                       # Number of dispatched store instructions
system.switch_cpus_1.iew.iewDispNonSpecInsts          279                       # Number of dispatched non-speculative instructions
system.switch_cpus_1.iew.iewIQFullEvents       148655                       # Number of times the IQ has become full, causing a stall
system.switch_cpus_1.iew.iewLSQFullEvents    302326102                       # Number of times the LSQ has become full, causing a stall
system.switch_cpus_1.iew.memOrderViolationEvents         1943                       # Number of memory order violations
system.switch_cpus_1.iew.predictedTakenIncorrect        31030                       # Number of branches that were predicted taken incorrectly
system.switch_cpus_1.iew.predictedNotTakenIncorrect          664                       # Number of branches that were predicted not taken incorrectly
system.switch_cpus_1.iew.branchMispredicts        31694                       # Number of branch mispredicts detected at execute
system.switch_cpus_1.iew.iewExecutedInsts    576442864                       # Number of executed instructions
system.switch_cpus_1.iew.iewExecLoadInsts    234321115                       # Number of load instructions executed
system.switch_cpus_1.iew.iewExecSquashedInsts       241423                       # Number of squashed instructions skipped in execute
system.switch_cpus_1.iew.exec_swp                   0                       # number of swp insts executed
system.switch_cpus_1.iew.exec_nop             2219883                       # number of nop insts executed
system.switch_cpus_1.iew.exec_refs          261690447                       # number of memory reference insts executed
system.switch_cpus_1.iew.exec_branches        9886715                       # Number of branches executed
system.switch_cpus_1.iew.exec_stores         27369332                       # Number of stores executed
system.switch_cpus_1.iew.exec_rate           0.501593                       # Inst execution rate
system.switch_cpus_1.iew.wb_sent            556633078                       # cumulative count of insts sent to commit
system.switch_cpus_1.iew.wb_count           553551700                       # cumulative count of insts written-back
system.switch_cpus_1.iew.wb_producers       371943321                       # num instructions producing a value
system.switch_cpus_1.iew.wb_consumers       400442867                       # num instructions consuming a value
system.switch_cpus_1.iew.wb_rate             0.481674                       # insts written-back per cycle
system.switch_cpus_1.iew.wb_fanout           0.928830                       # average fanout of values written-back
system.switch_cpus_1.commit.commitSquashedInsts     69247941                       # The number of squashed insts skipped by commit
system.switch_cpus_1.commit.commitNonSpecStalls          192                       # The number of times commit has been forced to stall to communicate backwards
system.switch_cpus_1.commit.branchMispredicts        28625                       # The number of times a branch was mispredicted
system.switch_cpus_1.commit.committed_per_cycle::samples   1140009964                       # Number of insts commited each cycle
system.switch_cpus_1.commit.committed_per_cycle::mean     0.440528                       # Number of insts commited each cycle
system.switch_cpus_1.commit.committed_per_cycle::stdev     1.660155                       # Number of insts commited each cycle
system.switch_cpus_1.commit.committed_per_cycle::underflows            0      0.00%      0.00% # Number of insts commited each cycle
system.switch_cpus_1.commit.committed_per_cycle::0   1032076820     90.53%     90.53% # Number of insts commited each cycle
system.switch_cpus_1.commit.committed_per_cycle::1     32729894      2.87%     93.40% # Number of insts commited each cycle
system.switch_cpus_1.commit.committed_per_cycle::2      8493655      0.75%     94.15% # Number of insts commited each cycle
system.switch_cpus_1.commit.committed_per_cycle::3      7276851      0.64%     94.79% # Number of insts commited each cycle
system.switch_cpus_1.commit.committed_per_cycle::4      5758115      0.51%     95.29% # Number of insts commited each cycle
system.switch_cpus_1.commit.committed_per_cycle::5      3785645      0.33%     95.62% # Number of insts commited each cycle
system.switch_cpus_1.commit.committed_per_cycle::6      3793399      0.33%     95.96% # Number of insts commited each cycle
system.switch_cpus_1.commit.committed_per_cycle::7      2827672      0.25%     96.20% # Number of insts commited each cycle
system.switch_cpus_1.commit.committed_per_cycle::8     43267913      3.80%    100.00% # Number of insts commited each cycle
system.switch_cpus_1.commit.committed_per_cycle::overflows            0      0.00%    100.00% # Number of insts commited each cycle
system.switch_cpus_1.commit.committed_per_cycle::min_value            0                       # Number of insts commited each cycle
system.switch_cpus_1.commit.committed_per_cycle::max_value            8                       # Number of insts commited each cycle
system.switch_cpus_1.commit.committed_per_cycle::total   1140009964                       # Number of insts commited each cycle
system.switch_cpus_1.commit.committedInsts    502205844                       # Number of instructions committed
system.switch_cpus_1.commit.committedOps    502205844                       # Number of ops (including micro ops) committed
system.switch_cpus_1.commit.swp_count               0                       # Number of s/w prefetches committed
system.switch_cpus_1.commit.refs            216133151                       # Number of memory references committed
system.switch_cpus_1.commit.loads           190250784                       # Number of loads committed
system.switch_cpus_1.commit.membars                96                       # Number of memory barriers committed
system.switch_cpus_1.commit.branches          8861025                       # Number of branches committed
system.switch_cpus_1.commit.fp_insts        315285095                       # Number of committed floating point instructions.
system.switch_cpus_1.commit.int_insts       342173999                       # Number of committed integer instructions.
system.switch_cpus_1.commit.function_calls       663699                       # Number of function calls committed.
system.switch_cpus_1.commit.op_class_0::No_OpClass      2205843      0.44%      0.44% # Class of committed instruction
system.switch_cpus_1.commit.op_class_0::IntAlu    120908672     24.08%     24.51% # Class of committed instruction
system.switch_cpus_1.commit.op_class_0::IntMult      4324280      0.86%     25.38% # Class of committed instruction
system.switch_cpus_1.commit.op_class_0::IntDiv            0      0.00%     25.38% # Class of committed instruction
system.switch_cpus_1.commit.op_class_0::FloatAdd     65751497     13.09%     38.47% # Class of committed instruction
system.switch_cpus_1.commit.op_class_0::FloatCmp      1103604      0.22%     38.69% # Class of committed instruction
system.switch_cpus_1.commit.op_class_0::FloatCvt      1105901      0.22%     38.91% # Class of committed instruction
system.switch_cpus_1.commit.op_class_0::FloatMult     90451620     18.01%     56.92% # Class of committed instruction
system.switch_cpus_1.commit.op_class_0::FloatMultAcc            0      0.00%     56.92% # Class of committed instruction
system.switch_cpus_1.commit.op_class_0::FloatDiv       221180      0.04%     56.96% # Class of committed instruction
system.switch_cpus_1.commit.op_class_0::FloatMisc            0      0.00%     56.96% # Class of committed instruction
system.switch_cpus_1.commit.op_class_0::FloatSqrt            0      0.00%     56.96% # Class of committed instruction
system.switch_cpus_1.commit.op_class_0::SimdAdd            0      0.00%     56.96% # Class of committed instruction
system.switch_cpus_1.commit.op_class_0::SimdAddAcc            0      0.00%     56.96% # Class of committed instruction
system.switch_cpus_1.commit.op_class_0::SimdAlu            0      0.00%     56.96% # Class of committed instruction
system.switch_cpus_1.commit.op_class_0::SimdCmp            0      0.00%     56.96% # Class of committed instruction
system.switch_cpus_1.commit.op_class_0::SimdCvt            0      0.00%     56.96% # Class of committed instruction
system.switch_cpus_1.commit.op_class_0::SimdMisc            0      0.00%     56.96% # Class of committed instruction
system.switch_cpus_1.commit.op_class_0::SimdMult            0      0.00%     56.96% # Class of committed instruction
system.switch_cpus_1.commit.op_class_0::SimdMultAcc            0      0.00%     56.96% # Class of committed instruction
system.switch_cpus_1.commit.op_class_0::SimdShift            0      0.00%     56.96% # Class of committed instruction
system.switch_cpus_1.commit.op_class_0::SimdShiftAcc            0      0.00%     56.96% # Class of committed instruction
system.switch_cpus_1.commit.op_class_0::SimdSqrt            0      0.00%     56.96% # Class of committed instruction
system.switch_cpus_1.commit.op_class_0::SimdFloatAdd            0      0.00%     56.96% # Class of committed instruction
system.switch_cpus_1.commit.op_class_0::SimdFloatAlu            0      0.00%     56.96% # Class of committed instruction
system.switch_cpus_1.commit.op_class_0::SimdFloatCmp            0      0.00%     56.96% # Class of committed instruction
system.switch_cpus_1.commit.op_class_0::SimdFloatCvt            0      0.00%     56.96% # Class of committed instruction
system.switch_cpus_1.commit.op_class_0::SimdFloatDiv            0      0.00%     56.96% # Class of committed instruction
system.switch_cpus_1.commit.op_class_0::SimdFloatMisc            0      0.00%     56.96% # Class of committed instruction
system.switch_cpus_1.commit.op_class_0::SimdFloatMult            0      0.00%     56.96% # Class of committed instruction
system.switch_cpus_1.commit.op_class_0::SimdFloatMultAcc            0      0.00%     56.96% # Class of committed instruction
system.switch_cpus_1.commit.op_class_0::SimdFloatSqrt            0      0.00%     56.96% # Class of committed instruction
system.switch_cpus_1.commit.op_class_0::MemRead     55663736     11.08%     68.05% # Class of committed instruction
system.switch_cpus_1.commit.op_class_0::MemWrite      3818218      0.76%     68.81% # Class of committed instruction
system.switch_cpus_1.commit.op_class_0::FloatMemRead    134587144     26.80%     95.61% # Class of committed instruction
system.switch_cpus_1.commit.op_class_0::FloatMemWrite     22064149      4.39%    100.00% # Class of committed instruction
system.switch_cpus_1.commit.op_class_0::IprAccess            0      0.00%    100.00% # Class of committed instruction
system.switch_cpus_1.commit.op_class_0::InstPrefetch            0      0.00%    100.00% # Class of committed instruction
system.switch_cpus_1.commit.op_class_0::total    502205844                       # Class of committed instruction
system.switch_cpus_1.commit.bw_lim_events     43267913                       # number cycles where commit BW limit reached
system.switch_cpus_1.rob.rob_reads         1657453091                       # The number of ROB reads
system.switch_cpus_1.rob.rob_writes        1151911205                       # The number of ROB writes
system.switch_cpus_1.timesIdled                  1377                       # Number of times that the entire CPU went into an idle state and unscheduled itself
system.switch_cpus_1.idleCycles                210581                       # Total number of cycles that the CPU has spent unscheduled due to idling
system.switch_cpus_1.committedInsts         500000001                       # Number of Instructions Simulated
system.switch_cpus_1.committedOps           500000001                       # Number of Ops (including micro ops) Simulated
system.switch_cpus_1.cpi                     2.298448                       # CPI: Cycles Per Instruction
system.switch_cpus_1.cpi_total               2.298448                       # CPI: Total CPI of All Threads
system.switch_cpus_1.ipc                     0.435076                       # IPC: Instructions Per Cycle
system.switch_cpus_1.ipc_total               0.435076                       # IPC: Total IPC of All Threads
system.switch_cpus_1.int_regfile_reads      489983043                       # number of integer regfile reads
system.switch_cpus_1.int_regfile_writes     212851736                       # number of integer regfile writes
system.switch_cpus_1.fp_regfile_reads       346029642                       # number of floating regfile reads
system.switch_cpus_1.fp_regfile_writes      304206017                       # number of floating regfile writes
system.switch_cpus_1.misc_regfile_reads       6857350                       # number of misc regfile reads
system.switch_cpus_1.misc_regfile_writes          192                       # number of misc regfile writes
system.tol3bus.snoop_filter.tot_requests     45766130                       # Total number of requests made to the snoop filter.
system.tol3bus.snoop_filter.hit_single_requests     22880757                       # Number of requests hitting in the snoop filter with a single holder of the requested data.
system.tol3bus.snoop_filter.hit_multi_requests            0                       # Number of requests hitting in the snoop filter with multiple (>1) holders of the requested data.
system.tol3bus.snoop_filter.tot_snoops           6809                       # Total number of snoops made to the snoop filter.
system.tol3bus.snoop_filter.hit_single_snoops         6809                       # Number of snoops hitting in the snoop filter with a single holder of the requested data.
system.tol3bus.snoop_filter.hit_multi_snoops            0                       # Number of snoops hitting in the snoop filter with multiple (>1) holders of the requested data.
system.tol3bus.pwrStateResidencyTicks::UNDEFINED 146596335646608                       # Cumulative time (in ticks) in various power states
system.tol3bus.trans_dist::ReadResp          22599832                       # Transaction distribution
system.tol3bus.trans_dist::WritebackDirty     21084777                       # Transaction distribution
system.tol3bus.trans_dist::CleanEvict        20910435                       # Transaction distribution
system.tol3bus.trans_dist::UpgradeReq              10                       # Transaction distribution
system.tol3bus.trans_dist::UpgradeResp             10                       # Transaction distribution
system.tol3bus.trans_dist::ReadExReq           285541                       # Transaction distribution
system.tol3bus.trans_dist::ReadExResp          285541                       # Transaction distribution
system.tol3bus.trans_dist::ReadSharedReq     22599832                       # Transaction distribution
system.tol3bus.pkt_count_system.cpu.l2.mem_side::system.l3.cpu_side     68651513                       # Packet count per connected master and slave (bytes)
system.tol3bus.pkt_size_system.cpu.l2.mem_side::system.l3.cpu_side   2155394240                       # Cumulative packet size per connected master and slave (bytes)
system.tol3bus.snoops                        19114465                       # Total snoops (count)
system.tol3bus.snoopTraffic                 658695360                       # Total snoop traffic (bytes)
system.tol3bus.snoop_fanout::samples         41999848                       # Request fanout histogram
system.tol3bus.snoop_fanout::mean            0.000162                       # Request fanout histogram
system.tol3bus.snoop_fanout::stdev           0.012732                       # Request fanout histogram
system.tol3bus.snoop_fanout::underflows             0      0.00%      0.00% # Request fanout histogram
system.tol3bus.snoop_fanout::0               41993039     99.98%     99.98% # Request fanout histogram
system.tol3bus.snoop_fanout::1                   6809      0.02%    100.00% # Request fanout histogram
system.tol3bus.snoop_fanout::overflows              0      0.00%    100.00% # Request fanout histogram
system.tol3bus.snoop_fanout::min_value              0                       # Request fanout histogram
system.tol3bus.snoop_fanout::max_value              1                       # Request fanout histogram
system.tol3bus.snoop_fanout::total           41999848                       # Request fanout histogram
system.tol3bus.reqLayer0.occupancy        18834077736                       # Layer occupancy (ticks)
system.tol3bus.reqLayer0.utilization              0.6                       # Layer utilization (%)
system.tol3bus.respLayer0.occupancy       15241661748                       # Layer occupancy (ticks)
system.tol3bus.respLayer0.utilization             0.5                       # Layer utilization (%)

---------- End Simulation Statistics   ----------
