
---------- Begin Simulation Statistics ----------
sim_seconds                                  0.959762                       # Number of seconds simulated
sim_ticks                                959762388555                       # Number of ticks simulated
final_tick                               284203762090659                       # Number of ticks from beginning of simulation (restored from checkpoints and never reset)
sim_freq                                 1000000000000                       # Frequency of simulated ticks
host_inst_rate                                 551613                       # Simulator instruction rate (inst/s)
host_op_rate                                   551613                       # Simulator op (including micro ops) rate (op/s)
host_tick_rate                              352945157                       # Simulator tick rate (ticks/s)
host_mem_usage                                2505512                       # Number of bytes of host memory used
host_seconds                                  2719.30                       # Real time elapsed on the host
sim_insts                                  1500000006                       # Number of instructions simulated
sim_ops                                    1500000006                       # Number of ops (including micro ops) simulated
system.voltage_domain.voltage                       1                       # Voltage in Volts
system.clk_domain.clock                          1000                       # Clock period in ticks
system.mem_ctrls0.pwrStateResidencyTicks::UNDEFINED 284203762090659                       # Cumulative time (in ticks) in various power states
system.mem_ctrls0.bytes_read::cpu.inst             64                       # Number of bytes read from this memory
system.mem_ctrls0.bytes_read::cpu.data            128                       # Number of bytes read from this memory
system.mem_ctrls0.bytes_read::switch_cpus.inst        33664                       # Number of bytes read from this memory
system.mem_ctrls0.bytes_read::switch_cpus.data       110464                       # Number of bytes read from this memory
system.mem_ctrls0.bytes_read::switch_cpus_1.inst         2624                       # Number of bytes read from this memory
system.mem_ctrls0.bytes_read::switch_cpus_1.data         4032                       # Number of bytes read from this memory
system.mem_ctrls0.bytes_read::total            150976                       # Number of bytes read from this memory
system.mem_ctrls0.bytes_inst_read::cpu.inst           64                       # Number of instructions bytes read from this memory
system.mem_ctrls0.bytes_inst_read::switch_cpus.inst        33664                       # Number of instructions bytes read from this memory
system.mem_ctrls0.bytes_inst_read::switch_cpus_1.inst         2624                       # Number of instructions bytes read from this memory
system.mem_ctrls0.bytes_inst_read::total        36352                       # Number of instructions bytes read from this memory
system.mem_ctrls0.num_reads::cpu.inst               1                       # Number of read requests responded to by this memory
system.mem_ctrls0.num_reads::cpu.data               2                       # Number of read requests responded to by this memory
system.mem_ctrls0.num_reads::switch_cpus.inst          526                       # Number of read requests responded to by this memory
system.mem_ctrls0.num_reads::switch_cpus.data         1726                       # Number of read requests responded to by this memory
system.mem_ctrls0.num_reads::switch_cpus_1.inst           41                       # Number of read requests responded to by this memory
system.mem_ctrls0.num_reads::switch_cpus_1.data           63                       # Number of read requests responded to by this memory
system.mem_ctrls0.num_reads::total               2359                       # Number of read requests responded to by this memory
system.mem_ctrls0.bw_read::cpu.inst                67                       # Total read bandwidth from this memory (bytes/s)
system.mem_ctrls0.bw_read::cpu.data               133                       # Total read bandwidth from this memory (bytes/s)
system.mem_ctrls0.bw_read::switch_cpus.inst        35075                       # Total read bandwidth from this memory (bytes/s)
system.mem_ctrls0.bw_read::switch_cpus.data       115095                       # Total read bandwidth from this memory (bytes/s)
system.mem_ctrls0.bw_read::switch_cpus_1.inst         2734                       # Total read bandwidth from this memory (bytes/s)
system.mem_ctrls0.bw_read::switch_cpus_1.data         4201                       # Total read bandwidth from this memory (bytes/s)
system.mem_ctrls0.bw_read::total               157306                       # Total read bandwidth from this memory (bytes/s)
system.mem_ctrls0.bw_inst_read::cpu.inst           67                       # Instruction read bandwidth from this memory (bytes/s)
system.mem_ctrls0.bw_inst_read::switch_cpus.inst        35075                       # Instruction read bandwidth from this memory (bytes/s)
system.mem_ctrls0.bw_inst_read::switch_cpus_1.inst         2734                       # Instruction read bandwidth from this memory (bytes/s)
system.mem_ctrls0.bw_inst_read::total           37876                       # Instruction read bandwidth from this memory (bytes/s)
system.mem_ctrls0.bw_total::cpu.inst               67                       # Total bandwidth to/from this memory (bytes/s)
system.mem_ctrls0.bw_total::cpu.data              133                       # Total bandwidth to/from this memory (bytes/s)
system.mem_ctrls0.bw_total::switch_cpus.inst        35075                       # Total bandwidth to/from this memory (bytes/s)
system.mem_ctrls0.bw_total::switch_cpus.data       115095                       # Total bandwidth to/from this memory (bytes/s)
system.mem_ctrls0.bw_total::switch_cpus_1.inst         2734                       # Total bandwidth to/from this memory (bytes/s)
system.mem_ctrls0.bw_total::switch_cpus_1.data         4201                       # Total bandwidth to/from this memory (bytes/s)
system.mem_ctrls0.bw_total::total              157306                       # Total bandwidth to/from this memory (bytes/s)
system.mem_ctrls0.readReqs                       2359                       # Number of read requests accepted
system.mem_ctrls0.writeReqs                         0                       # Number of write requests accepted
system.mem_ctrls0.readBursts                     2359                       # Number of DRAM read bursts, including those serviced by the write queue
system.mem_ctrls0.writeBursts                       0                       # Number of DRAM write bursts, including those merged in the write queue
system.mem_ctrls0.bytesReadDRAM                150976                       # Total number of bytes read from DRAM
system.mem_ctrls0.bytesReadWrQ                      0                       # Total number of bytes read from write queue
system.mem_ctrls0.bytesWritten                      0                       # Total number of bytes written to DRAM
system.mem_ctrls0.bytesReadSys                 150976                       # Total read bytes from the system interface side
system.mem_ctrls0.bytesWrittenSys                   0                       # Total written bytes from the system interface side
system.mem_ctrls0.servicedByWrQ                     0                       # Number of DRAM read bursts serviced by the write queue
system.mem_ctrls0.mergedWrBursts                    0                       # Number of DRAM write bursts merged with an existing one
system.mem_ctrls0.neitherReadNorWriteReqs            0                       # Number of requests that are neither read nor write
system.mem_ctrls0.perBankRdBursts::0              238                       # Per bank write bursts
system.mem_ctrls0.perBankRdBursts::1              371                       # Per bank write bursts
system.mem_ctrls0.perBankRdBursts::2              278                       # Per bank write bursts
system.mem_ctrls0.perBankRdBursts::3              126                       # Per bank write bursts
system.mem_ctrls0.perBankRdBursts::4               57                       # Per bank write bursts
system.mem_ctrls0.perBankRdBursts::5               89                       # Per bank write bursts
system.mem_ctrls0.perBankRdBursts::6              133                       # Per bank write bursts
system.mem_ctrls0.perBankRdBursts::7              170                       # Per bank write bursts
system.mem_ctrls0.perBankRdBursts::8               64                       # Per bank write bursts
system.mem_ctrls0.perBankRdBursts::9              123                       # Per bank write bursts
system.mem_ctrls0.perBankRdBursts::10             102                       # Per bank write bursts
system.mem_ctrls0.perBankRdBursts::11             118                       # Per bank write bursts
system.mem_ctrls0.perBankRdBursts::12             290                       # Per bank write bursts
system.mem_ctrls0.perBankRdBursts::13             134                       # Per bank write bursts
system.mem_ctrls0.perBankRdBursts::14              14                       # Per bank write bursts
system.mem_ctrls0.perBankRdBursts::15              52                       # Per bank write bursts
system.mem_ctrls0.perBankWrBursts::0                0                       # Per bank write bursts
system.mem_ctrls0.perBankWrBursts::1                0                       # Per bank write bursts
system.mem_ctrls0.perBankWrBursts::2                0                       # Per bank write bursts
system.mem_ctrls0.perBankWrBursts::3                0                       # Per bank write bursts
system.mem_ctrls0.perBankWrBursts::4                0                       # Per bank write bursts
system.mem_ctrls0.perBankWrBursts::5                0                       # Per bank write bursts
system.mem_ctrls0.perBankWrBursts::6                0                       # Per bank write bursts
system.mem_ctrls0.perBankWrBursts::7                0                       # Per bank write bursts
system.mem_ctrls0.perBankWrBursts::8                0                       # Per bank write bursts
system.mem_ctrls0.perBankWrBursts::9                0                       # Per bank write bursts
system.mem_ctrls0.perBankWrBursts::10               0                       # Per bank write bursts
system.mem_ctrls0.perBankWrBursts::11               0                       # Per bank write bursts
system.mem_ctrls0.perBankWrBursts::12               0                       # Per bank write bursts
system.mem_ctrls0.perBankWrBursts::13               0                       # Per bank write bursts
system.mem_ctrls0.perBankWrBursts::14               0                       # Per bank write bursts
system.mem_ctrls0.perBankWrBursts::15               0                       # Per bank write bursts
system.mem_ctrls0.numRdRetry                        0                       # Number of times read queue was full causing retry
system.mem_ctrls0.numWrRetry                        0                       # Number of times write queue was full causing retry
system.mem_ctrls0.totGap                 959320002051                       # Total gap between requests
system.mem_ctrls0.readPktSize::0                    0                       # Read request sizes (log2)
system.mem_ctrls0.readPktSize::1                    0                       # Read request sizes (log2)
system.mem_ctrls0.readPktSize::2                    0                       # Read request sizes (log2)
system.mem_ctrls0.readPktSize::3                    0                       # Read request sizes (log2)
system.mem_ctrls0.readPktSize::4                    0                       # Read request sizes (log2)
system.mem_ctrls0.readPktSize::5                    0                       # Read request sizes (log2)
system.mem_ctrls0.readPktSize::6                 2359                       # Read request sizes (log2)
system.mem_ctrls0.writePktSize::0                   0                       # Write request sizes (log2)
system.mem_ctrls0.writePktSize::1                   0                       # Write request sizes (log2)
system.mem_ctrls0.writePktSize::2                   0                       # Write request sizes (log2)
system.mem_ctrls0.writePktSize::3                   0                       # Write request sizes (log2)
system.mem_ctrls0.writePktSize::4                   0                       # Write request sizes (log2)
system.mem_ctrls0.writePktSize::5                   0                       # Write request sizes (log2)
system.mem_ctrls0.writePktSize::6                   0                       # Write request sizes (log2)
system.mem_ctrls0.rdQLenPdf::0                   2347                       # What read queue length does an incoming req see
system.mem_ctrls0.rdQLenPdf::1                     11                       # What read queue length does an incoming req see
system.mem_ctrls0.rdQLenPdf::2                      1                       # What read queue length does an incoming req see
system.mem_ctrls0.rdQLenPdf::3                      0                       # What read queue length does an incoming req see
system.mem_ctrls0.rdQLenPdf::4                      0                       # What read queue length does an incoming req see
system.mem_ctrls0.rdQLenPdf::5                      0                       # What read queue length does an incoming req see
system.mem_ctrls0.rdQLenPdf::6                      0                       # What read queue length does an incoming req see
system.mem_ctrls0.rdQLenPdf::7                      0                       # What read queue length does an incoming req see
system.mem_ctrls0.rdQLenPdf::8                      0                       # What read queue length does an incoming req see
system.mem_ctrls0.rdQLenPdf::9                      0                       # What read queue length does an incoming req see
system.mem_ctrls0.rdQLenPdf::10                     0                       # What read queue length does an incoming req see
system.mem_ctrls0.rdQLenPdf::11                     0                       # What read queue length does an incoming req see
system.mem_ctrls0.rdQLenPdf::12                     0                       # What read queue length does an incoming req see
system.mem_ctrls0.rdQLenPdf::13                     0                       # What read queue length does an incoming req see
system.mem_ctrls0.rdQLenPdf::14                     0                       # What read queue length does an incoming req see
system.mem_ctrls0.rdQLenPdf::15                     0                       # What read queue length does an incoming req see
system.mem_ctrls0.rdQLenPdf::16                     0                       # What read queue length does an incoming req see
system.mem_ctrls0.rdQLenPdf::17                     0                       # What read queue length does an incoming req see
system.mem_ctrls0.rdQLenPdf::18                     0                       # What read queue length does an incoming req see
system.mem_ctrls0.rdQLenPdf::19                     0                       # What read queue length does an incoming req see
system.mem_ctrls0.rdQLenPdf::20                     0                       # What read queue length does an incoming req see
system.mem_ctrls0.rdQLenPdf::21                     0                       # What read queue length does an incoming req see
system.mem_ctrls0.rdQLenPdf::22                     0                       # What read queue length does an incoming req see
system.mem_ctrls0.rdQLenPdf::23                     0                       # What read queue length does an incoming req see
system.mem_ctrls0.rdQLenPdf::24                     0                       # What read queue length does an incoming req see
system.mem_ctrls0.rdQLenPdf::25                     0                       # What read queue length does an incoming req see
system.mem_ctrls0.rdQLenPdf::26                     0                       # What read queue length does an incoming req see
system.mem_ctrls0.rdQLenPdf::27                     0                       # What read queue length does an incoming req see
system.mem_ctrls0.rdQLenPdf::28                     0                       # What read queue length does an incoming req see
system.mem_ctrls0.rdQLenPdf::29                     0                       # What read queue length does an incoming req see
system.mem_ctrls0.rdQLenPdf::30                     0                       # What read queue length does an incoming req see
system.mem_ctrls0.rdQLenPdf::31                     0                       # What read queue length does an incoming req see
system.mem_ctrls0.wrQLenPdf::0                      0                       # What write queue length does an incoming req see
system.mem_ctrls0.wrQLenPdf::1                      0                       # What write queue length does an incoming req see
system.mem_ctrls0.wrQLenPdf::2                      0                       # What write queue length does an incoming req see
system.mem_ctrls0.wrQLenPdf::3                      0                       # What write queue length does an incoming req see
system.mem_ctrls0.wrQLenPdf::4                      0                       # What write queue length does an incoming req see
system.mem_ctrls0.wrQLenPdf::5                      0                       # What write queue length does an incoming req see
system.mem_ctrls0.wrQLenPdf::6                      0                       # What write queue length does an incoming req see
system.mem_ctrls0.wrQLenPdf::7                      0                       # What write queue length does an incoming req see
system.mem_ctrls0.wrQLenPdf::8                      0                       # What write queue length does an incoming req see
system.mem_ctrls0.wrQLenPdf::9                      0                       # What write queue length does an incoming req see
system.mem_ctrls0.wrQLenPdf::10                     0                       # What write queue length does an incoming req see
system.mem_ctrls0.wrQLenPdf::11                     0                       # What write queue length does an incoming req see
system.mem_ctrls0.wrQLenPdf::12                     0                       # What write queue length does an incoming req see
system.mem_ctrls0.wrQLenPdf::13                     0                       # What write queue length does an incoming req see
system.mem_ctrls0.wrQLenPdf::14                     0                       # What write queue length does an incoming req see
system.mem_ctrls0.wrQLenPdf::15                     0                       # What write queue length does an incoming req see
system.mem_ctrls0.wrQLenPdf::16                     0                       # What write queue length does an incoming req see
system.mem_ctrls0.wrQLenPdf::17                     0                       # What write queue length does an incoming req see
system.mem_ctrls0.wrQLenPdf::18                     0                       # What write queue length does an incoming req see
system.mem_ctrls0.wrQLenPdf::19                     0                       # What write queue length does an incoming req see
system.mem_ctrls0.wrQLenPdf::20                     0                       # What write queue length does an incoming req see
system.mem_ctrls0.wrQLenPdf::21                     0                       # What write queue length does an incoming req see
system.mem_ctrls0.wrQLenPdf::22                     0                       # What write queue length does an incoming req see
system.mem_ctrls0.wrQLenPdf::23                     0                       # What write queue length does an incoming req see
system.mem_ctrls0.wrQLenPdf::24                     0                       # What write queue length does an incoming req see
system.mem_ctrls0.wrQLenPdf::25                     0                       # What write queue length does an incoming req see
system.mem_ctrls0.wrQLenPdf::26                     0                       # What write queue length does an incoming req see
system.mem_ctrls0.wrQLenPdf::27                     0                       # What write queue length does an incoming req see
system.mem_ctrls0.wrQLenPdf::28                     0                       # What write queue length does an incoming req see
system.mem_ctrls0.wrQLenPdf::29                     0                       # What write queue length does an incoming req see
system.mem_ctrls0.wrQLenPdf::30                     0                       # What write queue length does an incoming req see
system.mem_ctrls0.wrQLenPdf::31                     0                       # What write queue length does an incoming req see
system.mem_ctrls0.wrQLenPdf::32                     0                       # What write queue length does an incoming req see
system.mem_ctrls0.wrQLenPdf::33                     0                       # What write queue length does an incoming req see
system.mem_ctrls0.wrQLenPdf::34                     0                       # What write queue length does an incoming req see
system.mem_ctrls0.wrQLenPdf::35                     0                       # What write queue length does an incoming req see
system.mem_ctrls0.wrQLenPdf::36                     0                       # What write queue length does an incoming req see
system.mem_ctrls0.wrQLenPdf::37                     0                       # What write queue length does an incoming req see
system.mem_ctrls0.wrQLenPdf::38                     0                       # What write queue length does an incoming req see
system.mem_ctrls0.wrQLenPdf::39                     0                       # What write queue length does an incoming req see
system.mem_ctrls0.wrQLenPdf::40                     0                       # What write queue length does an incoming req see
system.mem_ctrls0.wrQLenPdf::41                     0                       # What write queue length does an incoming req see
system.mem_ctrls0.wrQLenPdf::42                     0                       # What write queue length does an incoming req see
system.mem_ctrls0.wrQLenPdf::43                     0                       # What write queue length does an incoming req see
system.mem_ctrls0.wrQLenPdf::44                     0                       # What write queue length does an incoming req see
system.mem_ctrls0.wrQLenPdf::45                     0                       # What write queue length does an incoming req see
system.mem_ctrls0.wrQLenPdf::46                     0                       # What write queue length does an incoming req see
system.mem_ctrls0.wrQLenPdf::47                     0                       # What write queue length does an incoming req see
system.mem_ctrls0.wrQLenPdf::48                     0                       # What write queue length does an incoming req see
system.mem_ctrls0.wrQLenPdf::49                     0                       # What write queue length does an incoming req see
system.mem_ctrls0.wrQLenPdf::50                     0                       # What write queue length does an incoming req see
system.mem_ctrls0.wrQLenPdf::51                     0                       # What write queue length does an incoming req see
system.mem_ctrls0.wrQLenPdf::52                     0                       # What write queue length does an incoming req see
system.mem_ctrls0.wrQLenPdf::53                     0                       # What write queue length does an incoming req see
system.mem_ctrls0.wrQLenPdf::54                     0                       # What write queue length does an incoming req see
system.mem_ctrls0.wrQLenPdf::55                     0                       # What write queue length does an incoming req see
system.mem_ctrls0.wrQLenPdf::56                     0                       # What write queue length does an incoming req see
system.mem_ctrls0.wrQLenPdf::57                     0                       # What write queue length does an incoming req see
system.mem_ctrls0.wrQLenPdf::58                     0                       # What write queue length does an incoming req see
system.mem_ctrls0.wrQLenPdf::59                     0                       # What write queue length does an incoming req see
system.mem_ctrls0.wrQLenPdf::60                     0                       # What write queue length does an incoming req see
system.mem_ctrls0.wrQLenPdf::61                     0                       # What write queue length does an incoming req see
system.mem_ctrls0.wrQLenPdf::62                     0                       # What write queue length does an incoming req see
system.mem_ctrls0.wrQLenPdf::63                     0                       # What write queue length does an incoming req see
system.mem_ctrls0.bytesPerActivate::samples         1280                       # Bytes accessed per row activation
system.mem_ctrls0.bytesPerActivate::mean   117.950000                       # Bytes accessed per row activation
system.mem_ctrls0.bytesPerActivate::gmean    91.912393                       # Bytes accessed per row activation
system.mem_ctrls0.bytesPerActivate::stdev   120.332497                       # Bytes accessed per row activation
system.mem_ctrls0.bytesPerActivate::0-127          873     68.20%     68.20% # Bytes accessed per row activation
system.mem_ctrls0.bytesPerActivate::128-255          270     21.09%     89.30% # Bytes accessed per row activation
system.mem_ctrls0.bytesPerActivate::256-383           78      6.09%     95.39% # Bytes accessed per row activation
system.mem_ctrls0.bytesPerActivate::384-511           30      2.34%     97.73% # Bytes accessed per row activation
system.mem_ctrls0.bytesPerActivate::512-639           11      0.86%     98.59% # Bytes accessed per row activation
system.mem_ctrls0.bytesPerActivate::640-767            4      0.31%     98.91% # Bytes accessed per row activation
system.mem_ctrls0.bytesPerActivate::768-895            8      0.62%     99.53% # Bytes accessed per row activation
system.mem_ctrls0.bytesPerActivate::896-1023            5      0.39%     99.92% # Bytes accessed per row activation
system.mem_ctrls0.bytesPerActivate::1024-1151            1      0.08%    100.00% # Bytes accessed per row activation
system.mem_ctrls0.bytesPerActivate::total         1280                       # Bytes accessed per row activation
system.mem_ctrls0.totQLat                   396520500                       # Total ticks spent queuing
system.mem_ctrls0.totMemAccLat              440751750                       # Total ticks spent from burst creation until serviced by the DRAM
system.mem_ctrls0.totBusLat                  11795000                       # Total ticks spent in databus transfers
system.mem_ctrls0.avgQLat                   168088.38                       # Average queueing delay per DRAM burst
system.mem_ctrls0.avgBusLat                   5000.00                       # Average bus latency per DRAM burst
system.mem_ctrls0.avgMemAccLat              186838.38                       # Average memory access latency per DRAM burst
system.mem_ctrls0.avgRdBW                        0.16                       # Average DRAM read bandwidth in MiByte/s
system.mem_ctrls0.avgWrBW                        0.00                       # Average achieved write bandwidth in MiByte/s
system.mem_ctrls0.avgRdBWSys                     0.16                       # Average system read bandwidth in MiByte/s
system.mem_ctrls0.avgWrBWSys                     0.00                       # Average system write bandwidth in MiByte/s
system.mem_ctrls0.peakBW                     12800.00                       # Theoretical peak bandwidth in MiByte/s
system.mem_ctrls0.busUtil                        0.00                       # Data bus utilization in percentage
system.mem_ctrls0.busUtilRead                    0.00                       # Data bus utilization in percentage for reads
system.mem_ctrls0.busUtilWrite                   0.00                       # Data bus utilization in percentage for writes
system.mem_ctrls0.avgRdQLen                      1.01                       # Average read queue length when enqueuing
system.mem_ctrls0.avgWrQLen                      0.00                       # Average write queue length when enqueuing
system.mem_ctrls0.readRowHits                    1079                       # Number of row buffer hits during reads
system.mem_ctrls0.writeRowHits                      0                       # Number of row buffer hits during writes
system.mem_ctrls0.readRowHitRate                45.74                       # Row buffer hit rate for reads
system.mem_ctrls0.writeRowHitRate                 nan                       # Row buffer hit rate for writes
system.mem_ctrls0.avgGap                 406663841.48                       # Average gap between requests
system.mem_ctrls0.pageHitRate                   45.74                       # Row buffer hit rate, read and write combined
system.mem_ctrls0_0.actEnergy                 5847660                       # Energy for activate commands per rank (pJ)
system.mem_ctrls0_0.preEnergy                 3108105                       # Energy for precharge commands per rank (pJ)
system.mem_ctrls0_0.readEnergy               10438680                       # Energy for read commands per rank (pJ)
system.mem_ctrls0_0.writeEnergy                     0                       # Energy for write commands per rank (pJ)
system.mem_ctrls0_0.refreshEnergy        871559520.000000                       # Energy for refresh commands per rank (pJ)
system.mem_ctrls0_0.actBackEnergy           180856440                       # Energy for active background per rank (pJ)
system.mem_ctrls0_0.preBackEnergy            59608800                       # Energy for precharge background per rank (pJ)
system.mem_ctrls0_0.actPowerDownEnergy     1750507050                       # Energy for active power-down per rank (pJ)
system.mem_ctrls0_0.prePowerDownEnergy     1345383840                       # Energy for precharge power-down per rank (pJ)
system.mem_ctrls0_0.selfRefreshEnergy    228688076370                       # Energy for self refresh per rank (pJ)
system.mem_ctrls0_0.totalEnergy          232915520145                       # Total energy per rank (pJ)
system.mem_ctrls0_0.averagePower           242.680400                       # Core power per rank (mW)
system.mem_ctrls0_0.totalIdleTime        958784342979                       # Total Idle time Per DRAM Rank
system.mem_ctrls0_0.memoryStateTime::IDLE    125863844                       # Time in different power states
system.mem_ctrls0_0.memoryStateTime::REF    371302000                       # Time in different power states
system.mem_ctrls0_0.memoryStateTime::SREF 951867828555                       # Time in different power states
system.mem_ctrls0_0.memoryStateTime::PRE_PDN   3503621472                       # Time in different power states
system.mem_ctrls0_0.memoryStateTime::ACT     54927735                       # Time in different power states
system.mem_ctrls0_0.memoryStateTime::ACT_PDN   3838844949                       # Time in different power states
system.mem_ctrls0_1.actEnergy                 3291540                       # Energy for activate commands per rank (pJ)
system.mem_ctrls0_1.preEnergy                 1749495                       # Energy for precharge commands per rank (pJ)
system.mem_ctrls0_1.readEnergy                6404580                       # Energy for read commands per rank (pJ)
system.mem_ctrls0_1.writeEnergy                     0                       # Energy for write commands per rank (pJ)
system.mem_ctrls0_1.refreshEnergy        496014480.000000                       # Energy for refresh commands per rank (pJ)
system.mem_ctrls0_1.actBackEnergy           103696680                       # Energy for active background per rank (pJ)
system.mem_ctrls0_1.preBackEnergy            33144000                       # Energy for precharge background per rank (pJ)
system.mem_ctrls0_1.actPowerDownEnergy     1006234680                       # Energy for active power-down per rank (pJ)
system.mem_ctrls0_1.prePowerDownEnergy      765736800                       # Energy for precharge power-down per rank (pJ)
system.mem_ctrls0_1.selfRefreshEnergy    229394274165                       # Energy for self refresh per rank (pJ)
system.mem_ctrls0_1.totalEnergy          231810650880                       # Total energy per rank (pJ)
system.mem_ctrls0_1.averagePower           241.529209                       # Core power per rank (mW)
system.mem_ctrls0_1.totalIdleTime        953126577845                       # Total Idle time Per DRAM Rank
system.mem_ctrls0_1.memoryStateTime::IDLE     69564776                       # Time in different power states
system.mem_ctrls0_1.memoryStateTime::REF    211314000                       # Time in different power states
system.mem_ctrls0_1.memoryStateTime::SREF 955247679805                       # Time in different power states
system.mem_ctrls0_1.memoryStateTime::PRE_PDN   1994110778                       # Time in different power states
system.mem_ctrls0_1.memoryStateTime::ACT     33068750                       # Time in different power states
system.mem_ctrls0_1.memoryStateTime::ACT_PDN   2206650446                       # Time in different power states
system.mem_ctrls1.pwrStateResidencyTicks::UNDEFINED 284203762090659                       # Cumulative time (in ticks) in various power states
system.mem_ctrls1.bytes_read::cpu.inst            128                       # Number of bytes read from this memory
system.mem_ctrls1.bytes_read::switch_cpus.inst        33664                       # Number of bytes read from this memory
system.mem_ctrls1.bytes_read::switch_cpus.data       110208                       # Number of bytes read from this memory
system.mem_ctrls1.bytes_read::switch_cpus_1.inst         2560                       # Number of bytes read from this memory
system.mem_ctrls1.bytes_read::switch_cpus_1.data         4032                       # Number of bytes read from this memory
system.mem_ctrls1.bytes_read::total            150592                       # Number of bytes read from this memory
system.mem_ctrls1.bytes_inst_read::cpu.inst          128                       # Number of instructions bytes read from this memory
system.mem_ctrls1.bytes_inst_read::switch_cpus.inst        33664                       # Number of instructions bytes read from this memory
system.mem_ctrls1.bytes_inst_read::switch_cpus_1.inst         2560                       # Number of instructions bytes read from this memory
system.mem_ctrls1.bytes_inst_read::total        36352                       # Number of instructions bytes read from this memory
system.mem_ctrls1.num_reads::cpu.inst               2                       # Number of read requests responded to by this memory
system.mem_ctrls1.num_reads::switch_cpus.inst          526                       # Number of read requests responded to by this memory
system.mem_ctrls1.num_reads::switch_cpus.data         1722                       # Number of read requests responded to by this memory
system.mem_ctrls1.num_reads::switch_cpus_1.inst           40                       # Number of read requests responded to by this memory
system.mem_ctrls1.num_reads::switch_cpus_1.data           63                       # Number of read requests responded to by this memory
system.mem_ctrls1.num_reads::total               2353                       # Number of read requests responded to by this memory
system.mem_ctrls1.bw_read::cpu.inst               133                       # Total read bandwidth from this memory (bytes/s)
system.mem_ctrls1.bw_read::switch_cpus.inst        35075                       # Total read bandwidth from this memory (bytes/s)
system.mem_ctrls1.bw_read::switch_cpus.data       114828                       # Total read bandwidth from this memory (bytes/s)
system.mem_ctrls1.bw_read::switch_cpus_1.inst         2667                       # Total read bandwidth from this memory (bytes/s)
system.mem_ctrls1.bw_read::switch_cpus_1.data         4201                       # Total read bandwidth from this memory (bytes/s)
system.mem_ctrls1.bw_read::total               156906                       # Total read bandwidth from this memory (bytes/s)
system.mem_ctrls1.bw_inst_read::cpu.inst          133                       # Instruction read bandwidth from this memory (bytes/s)
system.mem_ctrls1.bw_inst_read::switch_cpus.inst        35075                       # Instruction read bandwidth from this memory (bytes/s)
system.mem_ctrls1.bw_inst_read::switch_cpus_1.inst         2667                       # Instruction read bandwidth from this memory (bytes/s)
system.mem_ctrls1.bw_inst_read::total           37876                       # Instruction read bandwidth from this memory (bytes/s)
system.mem_ctrls1.bw_total::cpu.inst              133                       # Total bandwidth to/from this memory (bytes/s)
system.mem_ctrls1.bw_total::switch_cpus.inst        35075                       # Total bandwidth to/from this memory (bytes/s)
system.mem_ctrls1.bw_total::switch_cpus.data       114828                       # Total bandwidth to/from this memory (bytes/s)
system.mem_ctrls1.bw_total::switch_cpus_1.inst         2667                       # Total bandwidth to/from this memory (bytes/s)
system.mem_ctrls1.bw_total::switch_cpus_1.data         4201                       # Total bandwidth to/from this memory (bytes/s)
system.mem_ctrls1.bw_total::total              156906                       # Total bandwidth to/from this memory (bytes/s)
system.mem_ctrls1.readReqs                       2353                       # Number of read requests accepted
system.mem_ctrls1.writeReqs                         0                       # Number of write requests accepted
system.mem_ctrls1.readBursts                     2353                       # Number of DRAM read bursts, including those serviced by the write queue
system.mem_ctrls1.writeBursts                       0                       # Number of DRAM write bursts, including those merged in the write queue
system.mem_ctrls1.bytesReadDRAM                150592                       # Total number of bytes read from DRAM
system.mem_ctrls1.bytesReadWrQ                      0                       # Total number of bytes read from write queue
system.mem_ctrls1.bytesWritten                      0                       # Total number of bytes written to DRAM
system.mem_ctrls1.bytesReadSys                 150592                       # Total read bytes from the system interface side
system.mem_ctrls1.bytesWrittenSys                   0                       # Total written bytes from the system interface side
system.mem_ctrls1.servicedByWrQ                     0                       # Number of DRAM read bursts serviced by the write queue
system.mem_ctrls1.mergedWrBursts                    0                       # Number of DRAM write bursts merged with an existing one
system.mem_ctrls1.neitherReadNorWriteReqs            0                       # Number of requests that are neither read nor write
system.mem_ctrls1.perBankRdBursts::0              242                       # Per bank write bursts
system.mem_ctrls1.perBankRdBursts::1              362                       # Per bank write bursts
system.mem_ctrls1.perBankRdBursts::2              286                       # Per bank write bursts
system.mem_ctrls1.perBankRdBursts::3              126                       # Per bank write bursts
system.mem_ctrls1.perBankRdBursts::4               61                       # Per bank write bursts
system.mem_ctrls1.perBankRdBursts::5               89                       # Per bank write bursts
system.mem_ctrls1.perBankRdBursts::6              132                       # Per bank write bursts
system.mem_ctrls1.perBankRdBursts::7              169                       # Per bank write bursts
system.mem_ctrls1.perBankRdBursts::8               54                       # Per bank write bursts
system.mem_ctrls1.perBankRdBursts::9              121                       # Per bank write bursts
system.mem_ctrls1.perBankRdBursts::10             104                       # Per bank write bursts
system.mem_ctrls1.perBankRdBursts::11             113                       # Per bank write bursts
system.mem_ctrls1.perBankRdBursts::12             293                       # Per bank write bursts
system.mem_ctrls1.perBankRdBursts::13             137                       # Per bank write bursts
system.mem_ctrls1.perBankRdBursts::14              15                       # Per bank write bursts
system.mem_ctrls1.perBankRdBursts::15              49                       # Per bank write bursts
system.mem_ctrls1.perBankWrBursts::0                0                       # Per bank write bursts
system.mem_ctrls1.perBankWrBursts::1                0                       # Per bank write bursts
system.mem_ctrls1.perBankWrBursts::2                0                       # Per bank write bursts
system.mem_ctrls1.perBankWrBursts::3                0                       # Per bank write bursts
system.mem_ctrls1.perBankWrBursts::4                0                       # Per bank write bursts
system.mem_ctrls1.perBankWrBursts::5                0                       # Per bank write bursts
system.mem_ctrls1.perBankWrBursts::6                0                       # Per bank write bursts
system.mem_ctrls1.perBankWrBursts::7                0                       # Per bank write bursts
system.mem_ctrls1.perBankWrBursts::8                0                       # Per bank write bursts
system.mem_ctrls1.perBankWrBursts::9                0                       # Per bank write bursts
system.mem_ctrls1.perBankWrBursts::10               0                       # Per bank write bursts
system.mem_ctrls1.perBankWrBursts::11               0                       # Per bank write bursts
system.mem_ctrls1.perBankWrBursts::12               0                       # Per bank write bursts
system.mem_ctrls1.perBankWrBursts::13               0                       # Per bank write bursts
system.mem_ctrls1.perBankWrBursts::14               0                       # Per bank write bursts
system.mem_ctrls1.perBankWrBursts::15               0                       # Per bank write bursts
system.mem_ctrls1.numRdRetry                        0                       # Number of times read queue was full causing retry
system.mem_ctrls1.numWrRetry                        0                       # Number of times write queue was full causing retry
system.mem_ctrls1.totGap                 959320312740                       # Total gap between requests
system.mem_ctrls1.readPktSize::0                    0                       # Read request sizes (log2)
system.mem_ctrls1.readPktSize::1                    0                       # Read request sizes (log2)
system.mem_ctrls1.readPktSize::2                    0                       # Read request sizes (log2)
system.mem_ctrls1.readPktSize::3                    0                       # Read request sizes (log2)
system.mem_ctrls1.readPktSize::4                    0                       # Read request sizes (log2)
system.mem_ctrls1.readPktSize::5                    0                       # Read request sizes (log2)
system.mem_ctrls1.readPktSize::6                 2353                       # Read request sizes (log2)
system.mem_ctrls1.writePktSize::0                   0                       # Write request sizes (log2)
system.mem_ctrls1.writePktSize::1                   0                       # Write request sizes (log2)
system.mem_ctrls1.writePktSize::2                   0                       # Write request sizes (log2)
system.mem_ctrls1.writePktSize::3                   0                       # Write request sizes (log2)
system.mem_ctrls1.writePktSize::4                   0                       # Write request sizes (log2)
system.mem_ctrls1.writePktSize::5                   0                       # Write request sizes (log2)
system.mem_ctrls1.writePktSize::6                   0                       # Write request sizes (log2)
system.mem_ctrls1.rdQLenPdf::0                   2339                       # What read queue length does an incoming req see
system.mem_ctrls1.rdQLenPdf::1                     10                       # What read queue length does an incoming req see
system.mem_ctrls1.rdQLenPdf::2                      2                       # What read queue length does an incoming req see
system.mem_ctrls1.rdQLenPdf::3                      1                       # What read queue length does an incoming req see
system.mem_ctrls1.rdQLenPdf::4                      1                       # What read queue length does an incoming req see
system.mem_ctrls1.rdQLenPdf::5                      0                       # What read queue length does an incoming req see
system.mem_ctrls1.rdQLenPdf::6                      0                       # What read queue length does an incoming req see
system.mem_ctrls1.rdQLenPdf::7                      0                       # What read queue length does an incoming req see
system.mem_ctrls1.rdQLenPdf::8                      0                       # What read queue length does an incoming req see
system.mem_ctrls1.rdQLenPdf::9                      0                       # What read queue length does an incoming req see
system.mem_ctrls1.rdQLenPdf::10                     0                       # What read queue length does an incoming req see
system.mem_ctrls1.rdQLenPdf::11                     0                       # What read queue length does an incoming req see
system.mem_ctrls1.rdQLenPdf::12                     0                       # What read queue length does an incoming req see
system.mem_ctrls1.rdQLenPdf::13                     0                       # What read queue length does an incoming req see
system.mem_ctrls1.rdQLenPdf::14                     0                       # What read queue length does an incoming req see
system.mem_ctrls1.rdQLenPdf::15                     0                       # What read queue length does an incoming req see
system.mem_ctrls1.rdQLenPdf::16                     0                       # What read queue length does an incoming req see
system.mem_ctrls1.rdQLenPdf::17                     0                       # What read queue length does an incoming req see
system.mem_ctrls1.rdQLenPdf::18                     0                       # What read queue length does an incoming req see
system.mem_ctrls1.rdQLenPdf::19                     0                       # What read queue length does an incoming req see
system.mem_ctrls1.rdQLenPdf::20                     0                       # What read queue length does an incoming req see
system.mem_ctrls1.rdQLenPdf::21                     0                       # What read queue length does an incoming req see
system.mem_ctrls1.rdQLenPdf::22                     0                       # What read queue length does an incoming req see
system.mem_ctrls1.rdQLenPdf::23                     0                       # What read queue length does an incoming req see
system.mem_ctrls1.rdQLenPdf::24                     0                       # What read queue length does an incoming req see
system.mem_ctrls1.rdQLenPdf::25                     0                       # What read queue length does an incoming req see
system.mem_ctrls1.rdQLenPdf::26                     0                       # What read queue length does an incoming req see
system.mem_ctrls1.rdQLenPdf::27                     0                       # What read queue length does an incoming req see
system.mem_ctrls1.rdQLenPdf::28                     0                       # What read queue length does an incoming req see
system.mem_ctrls1.rdQLenPdf::29                     0                       # What read queue length does an incoming req see
system.mem_ctrls1.rdQLenPdf::30                     0                       # What read queue length does an incoming req see
system.mem_ctrls1.rdQLenPdf::31                     0                       # What read queue length does an incoming req see
system.mem_ctrls1.wrQLenPdf::0                      0                       # What write queue length does an incoming req see
system.mem_ctrls1.wrQLenPdf::1                      0                       # What write queue length does an incoming req see
system.mem_ctrls1.wrQLenPdf::2                      0                       # What write queue length does an incoming req see
system.mem_ctrls1.wrQLenPdf::3                      0                       # What write queue length does an incoming req see
system.mem_ctrls1.wrQLenPdf::4                      0                       # What write queue length does an incoming req see
system.mem_ctrls1.wrQLenPdf::5                      0                       # What write queue length does an incoming req see
system.mem_ctrls1.wrQLenPdf::6                      0                       # What write queue length does an incoming req see
system.mem_ctrls1.wrQLenPdf::7                      0                       # What write queue length does an incoming req see
system.mem_ctrls1.wrQLenPdf::8                      0                       # What write queue length does an incoming req see
system.mem_ctrls1.wrQLenPdf::9                      0                       # What write queue length does an incoming req see
system.mem_ctrls1.wrQLenPdf::10                     0                       # What write queue length does an incoming req see
system.mem_ctrls1.wrQLenPdf::11                     0                       # What write queue length does an incoming req see
system.mem_ctrls1.wrQLenPdf::12                     0                       # What write queue length does an incoming req see
system.mem_ctrls1.wrQLenPdf::13                     0                       # What write queue length does an incoming req see
system.mem_ctrls1.wrQLenPdf::14                     0                       # What write queue length does an incoming req see
system.mem_ctrls1.wrQLenPdf::15                     0                       # What write queue length does an incoming req see
system.mem_ctrls1.wrQLenPdf::16                     0                       # What write queue length does an incoming req see
system.mem_ctrls1.wrQLenPdf::17                     0                       # What write queue length does an incoming req see
system.mem_ctrls1.wrQLenPdf::18                     0                       # What write queue length does an incoming req see
system.mem_ctrls1.wrQLenPdf::19                     0                       # What write queue length does an incoming req see
system.mem_ctrls1.wrQLenPdf::20                     0                       # What write queue length does an incoming req see
system.mem_ctrls1.wrQLenPdf::21                     0                       # What write queue length does an incoming req see
system.mem_ctrls1.wrQLenPdf::22                     0                       # What write queue length does an incoming req see
system.mem_ctrls1.wrQLenPdf::23                     0                       # What write queue length does an incoming req see
system.mem_ctrls1.wrQLenPdf::24                     0                       # What write queue length does an incoming req see
system.mem_ctrls1.wrQLenPdf::25                     0                       # What write queue length does an incoming req see
system.mem_ctrls1.wrQLenPdf::26                     0                       # What write queue length does an incoming req see
system.mem_ctrls1.wrQLenPdf::27                     0                       # What write queue length does an incoming req see
system.mem_ctrls1.wrQLenPdf::28                     0                       # What write queue length does an incoming req see
system.mem_ctrls1.wrQLenPdf::29                     0                       # What write queue length does an incoming req see
system.mem_ctrls1.wrQLenPdf::30                     0                       # What write queue length does an incoming req see
system.mem_ctrls1.wrQLenPdf::31                     0                       # What write queue length does an incoming req see
system.mem_ctrls1.wrQLenPdf::32                     0                       # What write queue length does an incoming req see
system.mem_ctrls1.wrQLenPdf::33                     0                       # What write queue length does an incoming req see
system.mem_ctrls1.wrQLenPdf::34                     0                       # What write queue length does an incoming req see
system.mem_ctrls1.wrQLenPdf::35                     0                       # What write queue length does an incoming req see
system.mem_ctrls1.wrQLenPdf::36                     0                       # What write queue length does an incoming req see
system.mem_ctrls1.wrQLenPdf::37                     0                       # What write queue length does an incoming req see
system.mem_ctrls1.wrQLenPdf::38                     0                       # What write queue length does an incoming req see
system.mem_ctrls1.wrQLenPdf::39                     0                       # What write queue length does an incoming req see
system.mem_ctrls1.wrQLenPdf::40                     0                       # What write queue length does an incoming req see
system.mem_ctrls1.wrQLenPdf::41                     0                       # What write queue length does an incoming req see
system.mem_ctrls1.wrQLenPdf::42                     0                       # What write queue length does an incoming req see
system.mem_ctrls1.wrQLenPdf::43                     0                       # What write queue length does an incoming req see
system.mem_ctrls1.wrQLenPdf::44                     0                       # What write queue length does an incoming req see
system.mem_ctrls1.wrQLenPdf::45                     0                       # What write queue length does an incoming req see
system.mem_ctrls1.wrQLenPdf::46                     0                       # What write queue length does an incoming req see
system.mem_ctrls1.wrQLenPdf::47                     0                       # What write queue length does an incoming req see
system.mem_ctrls1.wrQLenPdf::48                     0                       # What write queue length does an incoming req see
system.mem_ctrls1.wrQLenPdf::49                     0                       # What write queue length does an incoming req see
system.mem_ctrls1.wrQLenPdf::50                     0                       # What write queue length does an incoming req see
system.mem_ctrls1.wrQLenPdf::51                     0                       # What write queue length does an incoming req see
system.mem_ctrls1.wrQLenPdf::52                     0                       # What write queue length does an incoming req see
system.mem_ctrls1.wrQLenPdf::53                     0                       # What write queue length does an incoming req see
system.mem_ctrls1.wrQLenPdf::54                     0                       # What write queue length does an incoming req see
system.mem_ctrls1.wrQLenPdf::55                     0                       # What write queue length does an incoming req see
system.mem_ctrls1.wrQLenPdf::56                     0                       # What write queue length does an incoming req see
system.mem_ctrls1.wrQLenPdf::57                     0                       # What write queue length does an incoming req see
system.mem_ctrls1.wrQLenPdf::58                     0                       # What write queue length does an incoming req see
system.mem_ctrls1.wrQLenPdf::59                     0                       # What write queue length does an incoming req see
system.mem_ctrls1.wrQLenPdf::60                     0                       # What write queue length does an incoming req see
system.mem_ctrls1.wrQLenPdf::61                     0                       # What write queue length does an incoming req see
system.mem_ctrls1.wrQLenPdf::62                     0                       # What write queue length does an incoming req see
system.mem_ctrls1.wrQLenPdf::63                     0                       # What write queue length does an incoming req see
system.mem_ctrls1.bytesPerActivate::samples         1257                       # Bytes accessed per row activation
system.mem_ctrls1.bytesPerActivate::mean   119.802705                       # Bytes accessed per row activation
system.mem_ctrls1.bytesPerActivate::gmean    93.558298                       # Bytes accessed per row activation
system.mem_ctrls1.bytesPerActivate::stdev   119.574668                       # Bytes accessed per row activation
system.mem_ctrls1.bytesPerActivate::64-127          832     66.19%     66.19% # Bytes accessed per row activation
system.mem_ctrls1.bytesPerActivate::128-191          192     15.27%     81.46% # Bytes accessed per row activation
system.mem_ctrls1.bytesPerActivate::192-255           91      7.24%     88.70% # Bytes accessed per row activation
system.mem_ctrls1.bytesPerActivate::256-319           65      5.17%     93.87% # Bytes accessed per row activation
system.mem_ctrls1.bytesPerActivate::320-383           21      1.67%     95.54% # Bytes accessed per row activation
system.mem_ctrls1.bytesPerActivate::384-447           10      0.80%     96.34% # Bytes accessed per row activation
system.mem_ctrls1.bytesPerActivate::448-511           14      1.11%     97.45% # Bytes accessed per row activation
system.mem_ctrls1.bytesPerActivate::512-575            7      0.56%     98.01% # Bytes accessed per row activation
system.mem_ctrls1.bytesPerActivate::576-639            4      0.32%     98.33% # Bytes accessed per row activation
system.mem_ctrls1.bytesPerActivate::640-703            3      0.24%     98.57% # Bytes accessed per row activation
system.mem_ctrls1.bytesPerActivate::704-767            4      0.32%     98.89% # Bytes accessed per row activation
system.mem_ctrls1.bytesPerActivate::768-831           11      0.88%     99.76% # Bytes accessed per row activation
system.mem_ctrls1.bytesPerActivate::832-895            1      0.08%     99.84% # Bytes accessed per row activation
system.mem_ctrls1.bytesPerActivate::960-1023            2      0.16%    100.00% # Bytes accessed per row activation
system.mem_ctrls1.bytesPerActivate::total         1257                       # Bytes accessed per row activation
system.mem_ctrls1.totQLat                   385660907                       # Total ticks spent queuing
system.mem_ctrls1.totMemAccLat              429779657                       # Total ticks spent from burst creation until serviced by the DRAM
system.mem_ctrls1.totBusLat                  11765000                       # Total ticks spent in databus transfers
system.mem_ctrls1.avgQLat                   163901.79                       # Average queueing delay per DRAM burst
system.mem_ctrls1.avgBusLat                   5000.00                       # Average bus latency per DRAM burst
system.mem_ctrls1.avgMemAccLat              182651.79                       # Average memory access latency per DRAM burst
system.mem_ctrls1.avgRdBW                        0.16                       # Average DRAM read bandwidth in MiByte/s
system.mem_ctrls1.avgWrBW                        0.00                       # Average achieved write bandwidth in MiByte/s
system.mem_ctrls1.avgRdBWSys                     0.16                       # Average system read bandwidth in MiByte/s
system.mem_ctrls1.avgWrBWSys                     0.00                       # Average system write bandwidth in MiByte/s
system.mem_ctrls1.peakBW                     12800.00                       # Theoretical peak bandwidth in MiByte/s
system.mem_ctrls1.busUtil                        0.00                       # Data bus utilization in percentage
system.mem_ctrls1.busUtilRead                    0.00                       # Data bus utilization in percentage for reads
system.mem_ctrls1.busUtilWrite                   0.00                       # Data bus utilization in percentage for writes
system.mem_ctrls1.avgRdQLen                      1.02                       # Average read queue length when enqueuing
system.mem_ctrls1.avgWrQLen                      0.00                       # Average write queue length when enqueuing
system.mem_ctrls1.readRowHits                    1096                       # Number of row buffer hits during reads
system.mem_ctrls1.writeRowHits                      0                       # Number of row buffer hits during writes
system.mem_ctrls1.readRowHitRate                46.58                       # Row buffer hit rate for reads
system.mem_ctrls1.writeRowHitRate                 nan                       # Row buffer hit rate for writes
system.mem_ctrls1.avgGap                 407700940.39                       # Average gap between requests
system.mem_ctrls1.pageHitRate                   46.58                       # Row buffer hit rate, read and write combined
system.mem_ctrls1_0.actEnergy                 5854800                       # Energy for activate commands per rank (pJ)
system.mem_ctrls1_0.preEnergy                 3111900                       # Energy for precharge commands per rank (pJ)
system.mem_ctrls1_0.readEnergy               10474380                       # Energy for read commands per rank (pJ)
system.mem_ctrls1_0.writeEnergy                     0                       # Energy for write commands per rank (pJ)
system.mem_ctrls1_0.refreshEnergy        856193520.000000                       # Energy for refresh commands per rank (pJ)
system.mem_ctrls1_0.actBackEnergy           178128420                       # Energy for active background per rank (pJ)
system.mem_ctrls1_0.preBackEnergy            58650720                       # Energy for precharge background per rank (pJ)
system.mem_ctrls1_0.actPowerDownEnergy     1722085140                       # Energy for active power-down per rank (pJ)
system.mem_ctrls1_0.prePowerDownEnergy     1320000480                       # Energy for precharge power-down per rank (pJ)
system.mem_ctrls1_0.selfRefreshEnergy    228716545755                       # Energy for self refresh per rank (pJ)
system.mem_ctrls1_0.totalEnergy          232871288955                       # Total energy per rank (pJ)
system.mem_ctrls1_0.averagePower           242.634314                       # Core power per rank (mW)
system.mem_ctrls1_0.totalIdleTime        958792522637                       # Total Idle time Per DRAM Rank
system.mem_ctrls1_0.memoryStateTime::IDLE    124104782                       # Time in different power states
system.mem_ctrls1_0.memoryStateTime::REF    364742000                       # Time in different power states
system.mem_ctrls1_0.memoryStateTime::SREF 952004482805                       # Time in different power states
system.mem_ctrls1_0.memoryStateTime::PRE_PDN   3437514589                       # Time in different power states
system.mem_ctrls1_0.memoryStateTime::ACT     55066806                       # Time in different power states
system.mem_ctrls1_0.memoryStateTime::ACT_PDN   3776477573                       # Time in different power states
system.mem_ctrls1_1.actEnergy                 3120180                       # Energy for activate commands per rank (pJ)
system.mem_ctrls1_1.preEnergy                 1658415                       # Energy for precharge commands per rank (pJ)
system.mem_ctrls1_1.readEnergy                6326040                       # Energy for read commands per rank (pJ)
system.mem_ctrls1_1.writeEnergy                     0                       # Energy for write commands per rank (pJ)
system.mem_ctrls1_1.refreshEnergy        470814240.000000                       # Energy for refresh commands per rank (pJ)
system.mem_ctrls1_1.actBackEnergy            98869350                       # Energy for active background per rank (pJ)
system.mem_ctrls1_1.preBackEnergy            30819840                       # Energy for precharge background per rank (pJ)
system.mem_ctrls1_1.actPowerDownEnergy      961401900                       # Energy for active power-down per rank (pJ)
system.mem_ctrls1_1.prePowerDownEnergy      718006560                       # Energy for precharge power-down per rank (pJ)
system.mem_ctrls1_1.selfRefreshEnergy    229445591220                       # Energy for self refresh per rank (pJ)
system.mem_ctrls1_1.totalEnergy          231736607745                       # Total energy per rank (pJ)
system.mem_ctrls1_1.averagePower           241.452062                       # Core power per rank (mW)
system.mem_ctrls1_1.totalIdleTime        957250166172                       # Total Idle time Per DRAM Rank
system.mem_ctrls1_1.memoryStateTime::IDLE     64162853                       # Time in different power states
system.mem_ctrls1_1.memoryStateTime::REF    200570000                       # Time in different power states
system.mem_ctrls1_1.memoryStateTime::SREF 955487163305                       # Time in different power states
system.mem_ctrls1_1.memoryStateTime::PRE_PDN   1869805330                       # Time in different power states
system.mem_ctrls1_1.memoryStateTime::ACT     32325536                       # Time in different power states
system.mem_ctrls1_1.memoryStateTime::ACT_PDN   2108361531                       # Time in different power states
system.pwrStateResidencyTicks::UNDEFINED 284203762090659                       # Cumulative time (in ticks) in various power states
system.cpu.branchPred.lookups                       1                       # Number of BP lookups
system.cpu.branchPred.condPredicted                 1                       # Number of conditional branches predicted
system.cpu.branchPred.condIncorrect                 0                       # Number of conditional branches incorrect
system.cpu.branchPred.BTBLookups                    0                       # Number of BTB lookups
system.cpu.branchPred.BTBHits                       0                       # Number of BTB hits
system.cpu.branchPred.BTBCorrect                    0                       # Number of correct BTB predictions (this stat may not work properly.
system.cpu.branchPred.BTBHitPct                   nan                       # BTB Hit Percentage
system.cpu.branchPred.usedRAS                       0                       # Number of times the RAS was used to get a target.
system.cpu.branchPred.RASInCorrect                  0                       # Number of incorrect RAS predictions.
system.cpu.branchPred.indirectLookups               0                       # Number of indirect predictor lookups.
system.cpu.branchPred.indirectHits                  0                       # Number of indirect target hits.
system.cpu.branchPred.indirectMisses                0                       # Number of indirect misses.
system.cpu.branchPredindirectMispredicted            0                       # Number of mispredicted indirect branches.
system.cpu_voltage_domain.voltage                   1                       # Voltage in Volts
system.cpu_clk_domain.clock                       333                       # Clock period in ticks
system.cpu.dtb.fetch_hits                           0                       # ITB hits
system.cpu.dtb.fetch_misses                         0                       # ITB misses
system.cpu.dtb.fetch_acv                            0                       # ITB acv
system.cpu.dtb.fetch_accesses                       0                       # ITB accesses
system.cpu.dtb.read_hits                            2                       # DTB read hits
system.cpu.dtb.read_misses                          0                       # DTB read misses
system.cpu.dtb.read_acv                             0                       # DTB read access violations
system.cpu.dtb.read_accesses                        2                       # DTB read accesses
system.cpu.dtb.write_hits                           0                       # DTB write hits
system.cpu.dtb.write_misses                         0                       # DTB write misses
system.cpu.dtb.write_acv                            0                       # DTB write access violations
system.cpu.dtb.write_accesses                       0                       # DTB write accesses
system.cpu.dtb.data_hits                            2                       # DTB hits
system.cpu.dtb.data_misses                          0                       # DTB misses
system.cpu.dtb.data_acv                             0                       # DTB access violations
system.cpu.dtb.data_accesses                        2                       # DTB accesses
system.cpu.itb.fetch_hits                           4                       # ITB hits
system.cpu.itb.fetch_misses                         0                       # ITB misses
system.cpu.itb.fetch_acv                            0                       # ITB acv
system.cpu.itb.fetch_accesses                       4                       # ITB accesses
system.cpu.itb.read_hits                            0                       # DTB read hits
system.cpu.itb.read_misses                          0                       # DTB read misses
system.cpu.itb.read_acv                             0                       # DTB read access violations
system.cpu.itb.read_accesses                        0                       # DTB read accesses
system.cpu.itb.write_hits                           0                       # DTB write hits
system.cpu.itb.write_misses                         0                       # DTB write misses
system.cpu.itb.write_acv                            0                       # DTB write access violations
system.cpu.itb.write_accesses                       0                       # DTB write accesses
system.cpu.itb.data_hits                            0                       # DTB hits
system.cpu.itb.data_misses                          0                       # DTB misses
system.cpu.itb.data_acv                             0                       # DTB access violations
system.cpu.itb.data_accesses                        0                       # DTB accesses
system.cpu.workload.num_syscalls                    0                       # Number of system calls
system.cpu.pwrStateResidencyTicks::ON    959762388555                       # Cumulative time (in ticks) in various power states
system.cpu.numCycles                              947                       # number of cpu cycles simulated
system.cpu.numWorkItemsStarted                      0                       # number of work items this cpu started
system.cpu.numWorkItemsCompleted                    0                       # number of work items this cpu completed
system.cpu.fetch.icacheStallCycles                 36                       # Number of cycles fetch is stalled on an Icache miss
system.cpu.fetch.Insts                             17                       # Number of instructions fetch has processed
system.cpu.fetch.Branches                           1                       # Number of branches that fetch encountered
system.cpu.fetch.Cycles                             3                       # Number of cycles fetch has run and was not squashing or blocked
system.cpu.fetch.SquashCycles                       3                       # Number of cycles fetch has spent squashing
system.cpu.fetch.PendingDrainCycles                 6                       # Number of cycles fetch has spent waiting on pipes to drain
system.cpu.fetch.CacheLines                         4                       # Number of cache lines fetched
system.cpu.fetch.IcacheSquashes                     2                       # Number of outstanding Icache misses that were squashed
system.cpu.fetch.rateDist::samples                 46                       # Number of instructions fetched each cycle (Total)
system.cpu.fetch.rateDist::mean              0.369565                       # Number of instructions fetched each cycle (Total)
system.cpu.fetch.rateDist::stdev             1.651379                       # Number of instructions fetched each cycle (Total)
system.cpu.fetch.rateDist::underflows               0      0.00%      0.00% # Number of instructions fetched each cycle (Total)
system.cpu.fetch.rateDist::0                       43     93.48%     93.48% # Number of instructions fetched each cycle (Total)
system.cpu.fetch.rateDist::1                        1      2.17%     95.65% # Number of instructions fetched each cycle (Total)
system.cpu.fetch.rateDist::2                        0      0.00%     95.65% # Number of instructions fetched each cycle (Total)
system.cpu.fetch.rateDist::3                        0      0.00%     95.65% # Number of instructions fetched each cycle (Total)
system.cpu.fetch.rateDist::4                        0      0.00%     95.65% # Number of instructions fetched each cycle (Total)
system.cpu.fetch.rateDist::5                        0      0.00%     95.65% # Number of instructions fetched each cycle (Total)
system.cpu.fetch.rateDist::6                        0      0.00%     95.65% # Number of instructions fetched each cycle (Total)
system.cpu.fetch.rateDist::7                        0      0.00%     95.65% # Number of instructions fetched each cycle (Total)
system.cpu.fetch.rateDist::8                        2      4.35%    100.00% # Number of instructions fetched each cycle (Total)
system.cpu.fetch.rateDist::overflows                0      0.00%    100.00% # Number of instructions fetched each cycle (Total)
system.cpu.fetch.rateDist::min_value                0                       # Number of instructions fetched each cycle (Total)
system.cpu.fetch.rateDist::max_value                8                       # Number of instructions fetched each cycle (Total)
system.cpu.fetch.rateDist::total                   46                       # Number of instructions fetched each cycle (Total)
system.cpu.fetch.branchRate                  0.001056                       # Number of branch fetches per cycle
system.cpu.fetch.rate                        0.017951                       # Number of inst fetches per cycle
system.cpu.decode.IdleCycles                       40                       # Number of cycles decode is idle
system.cpu.decode.BlockedCycles                     1                       # Number of cycles decode is blocked
system.cpu.decode.RunCycles                         3                       # Number of cycles decode is running
system.cpu.decode.SquashCycles                      2                       # Number of cycles decode is squashing
system.cpu.decode.DecodedInsts                     17                       # Number of instructions handled by decode
system.cpu.rename.SquashCycles                      2                       # Number of cycles rename is squashing
system.cpu.rename.IdleCycles                       40                       # Number of cycles rename is idle
system.cpu.rename.BlockCycles                       1                       # Number of cycles rename is blocking
system.cpu.rename.serializeStallCycles              0                       # count of cycles rename stalled for serializing inst
system.cpu.rename.RunCycles                         3                       # Number of cycles rename is running
system.cpu.rename.RenamedInsts                     17                       # Number of instructions processed by rename
system.cpu.rename.RenamedOperands                  15                       # Number of destination operands rename has renamed
system.cpu.rename.RenameLookups                    30                       # Number of register rename lookups that rename has made
system.cpu.rename.int_rename_lookups               11                       # Number of integer rename lookups
system.cpu.rename.fp_rename_lookups                19                       # Number of floating rename lookups
system.cpu.rename.CommittedMaps                     2                       # Number of HB maps that are committed
system.cpu.rename.UndoneMaps                       13                       # Number of HB maps that are undone due to squashing
system.cpu.rename.serializingInsts                  0                       # count of serializing insts renamed
system.cpu.rename.tempSerializingInsts              0                       # count of temporary serializing insts renamed
system.cpu.rename.skidInsts                         0                       # count of insts added to the skid buffer
system.cpu.memDep0.insertedLoads                    2                       # Number of loads inserted to the mem dependence unit.
system.cpu.memDep0.insertedStores                   1                       # Number of stores inserted to the mem dependence unit.
system.cpu.memDep0.conflictingLoads                 0                       # Number of conflicting loads.
system.cpu.memDep0.conflictingStores                0                       # Number of conflicting stores.
system.cpu.iq.iqInstsAdded                         17                       # Number of instructions added to the IQ (excludes non-spec)
system.cpu.iq.iqInstsIssued                        11                       # Number of instructions issued
system.cpu.iq.iqSquashedInstsExamined              15                       # Number of squashed instructions iterated over during squash; mainly for profiling
system.cpu.iq.iqSquashedOperandsExamined           14                       # Number of squashed operands that are examined and possibly removed from graph
system.cpu.iq.issued_per_cycle::samples            46                       # Number of insts issued each cycle
system.cpu.iq.issued_per_cycle::mean         0.239130                       # Number of insts issued each cycle
system.cpu.iq.issued_per_cycle::stdev        0.848130                       # Number of insts issued each cycle
system.cpu.iq.issued_per_cycle::underflows            0      0.00%      0.00% # Number of insts issued each cycle
system.cpu.iq.issued_per_cycle::0                  41     89.13%     89.13% # Number of insts issued each cycle
system.cpu.iq.issued_per_cycle::1                   3      6.52%     95.65% # Number of insts issued each cycle
system.cpu.iq.issued_per_cycle::2                   0      0.00%     95.65% # Number of insts issued each cycle
system.cpu.iq.issued_per_cycle::3                   0      0.00%     95.65% # Number of insts issued each cycle
system.cpu.iq.issued_per_cycle::4                   2      4.35%    100.00% # Number of insts issued each cycle
system.cpu.iq.issued_per_cycle::5                   0      0.00%    100.00% # Number of insts issued each cycle
system.cpu.iq.issued_per_cycle::6                   0      0.00%    100.00% # Number of insts issued each cycle
system.cpu.iq.issued_per_cycle::7                   0      0.00%    100.00% # Number of insts issued each cycle
system.cpu.iq.issued_per_cycle::8                   0      0.00%    100.00% # Number of insts issued each cycle
system.cpu.iq.issued_per_cycle::overflows            0      0.00%    100.00% # Number of insts issued each cycle
system.cpu.iq.issued_per_cycle::min_value            0                       # Number of insts issued each cycle
system.cpu.iq.issued_per_cycle::max_value            4                       # Number of insts issued each cycle
system.cpu.iq.issued_per_cycle::total              46                       # Number of insts issued each cycle
system.cpu.iq.fu_full::No_OpClass                   0      0.00%      0.00% # attempts to use FU when none available
[...]
system.switch_cpus_1.iq.fu_busy_cnt          24881843                       # FU busy when requested
system.switch_cpus_1.iq.fu_busy_rate         0.046390                       # FU busy rate (busy events/executed inst)
system.switch_cpus_1.iq.int_inst_queue_reads    888089242                       # Number of integer instruction queue reads
system.switch_cpus_1.iq.int_inst_queue_writes    381706447                       # Number of integer instruction queue writes
system.switch_cpus_1.iq.int_inst_queue_wakeup_accesses    337380767                       # Number of integer instruction queue wakeup accesses
system.switch_cpus_1.iq.fp_inst_queue_reads    406273125                       # Number of floating instruction queue reads
system.switch_cpus_1.iq.fp_inst_queue_writes    220887462                       # Number of floating instruction queue writes
system.switch_cpus_1.iq.fp_inst_queue_wakeup_accesses    192215749                       # Number of floating instruction queue wakeup accesses
system.switch_cpus_1.iq.int_alu_accesses    350076831                       # Number of integer alu accesses
system.switch_cpus_1.iq.fp_alu_accesses     211172837                       # Number of floating point alu accesses
system.switch_cpus_1.iew.lsq.thread0.forwLoads      9571856                       # Number of loads that had data forwarded from stores
system.switch_cpus_1.iew.lsq.thread0.invAddrLoads            0                       # Number of loads ignored due to an invalid address
system.switch_cpus_1.iew.lsq.thread0.squashedLoads     12491425                       # Number of loads squashed
system.switch_cpus_1.iew.lsq.thread0.ignoredResponses        12916                       # Number of memory responses ignored because the instruction is squashed
system.switch_cpus_1.iew.lsq.thread0.memOrderViolation       103570                       # Number of memory ordering violations
system.switch_cpus_1.iew.lsq.thread0.squashedStores      5051220                       # Number of stores squashed
system.switch_cpus_1.iew.lsq.thread0.invAddrSwpfs            0                       # Number of software prefetches ignored due to an invalid address
system.switch_cpus_1.iew.lsq.thread0.blockedLoads            0                       # Number of blocked loads due to partial load-store forwarding
system.switch_cpus_1.iew.lsq.thread0.rescheduledLoads            0                       # Number of loads that were rescheduled
system.switch_cpus_1.iew.lsq.thread0.cacheBlocked      1024608                       # Number of times an access to memory failed due to the cache being blocked
system.switch_cpus_1.iew.iewIdleCycles              0                       # Number of cycles IEW is idle
system.switch_cpus_1.iew.iewSquashCycles      1375518                       # Number of cycles IEW is squashing
system.switch_cpus_1.iew.iewBlockCycles       6836893                       # Number of cycles IEW is blocking
system.switch_cpus_1.iew.iewUnblockCycles      6833150                       # Number of cycles IEW is unblocking
system.switch_cpus_1.iew.iewDispatchedInsts    562611235                       # Number of instructions dispatched to IQ
system.switch_cpus_1.iew.iewDispSquashedInsts       502036                       # Number of squashed instructions skipped by dispatch
system.switch_cpus_1.iew.iewDispLoadInsts    136934168                       # Number of dispatched load instructions
system.switch_cpus_1.iew.iewDispStoreInsts     50974195                       # Number of dispatched store instructions
system.switch_cpus_1.iew.iewDispNonSpecInsts            0                       # Number of dispatched non-speculative instructions
system.switch_cpus_1.iew.iewIQFullEvents       538728                       # Number of times the IQ has become full, causing a stall
system.switch_cpus_1.iew.iewLSQFullEvents      5980104                       # Number of times the LSQ has become full, causing a stall
system.switch_cpus_1.iew.memOrderViolationEvents       103570                       # Number of memory order violations
system.switch_cpus_1.iew.predictedTakenIncorrect       616422                       # Number of branches that were predicted taken incorrectly
system.switch_cpus_1.iew.predictedNotTakenIncorrect       575744                       # Number of branches that were predicted not taken incorrectly
system.switch_cpus_1.iew.branchMispredicts      1192166                       # Number of branch mispredicts detected at execute
system.switch_cpus_1.iew.iewExecutedInsts    533778353                       # Number of executed instructions
system.switch_cpus_1.iew.iewExecLoadInsts    135036637                       # Number of load instructions executed
system.switch_cpus_1.iew.iewExecSquashedInsts      2589465                       # Number of squashed instructions skipped in execute
system.switch_cpus_1.iew.exec_swp                   0                       # number of swp insts executed
system.switch_cpus_1.iew.exec_nop            11365741                       # number of nop insts executed
system.switch_cpus_1.iew.exec_refs          183647035                       # number of memory reference insts executed
system.switch_cpus_1.iew.exec_branches       45240361                       # Number of branches executed
system.switch_cpus_1.iew.exec_stores         48610398                       # Number of stores executed
system.switch_cpus_1.iew.exec_rate           2.714690                       # Inst execution rate
system.switch_cpus_1.iew.wb_sent            531314822                       # cumulative count of insts sent to commit
system.switch_cpus_1.iew.wb_count           529596516                       # cumulative count of insts written-back
system.switch_cpus_1.iew.wb_producers       361952294                       # num instructions producing a value
system.switch_cpus_1.iew.wb_consumers       449564695                       # num instructions consuming a value
system.switch_cpus_1.iew.wb_rate             2.693422                       # insts written-back per cycle
system.switch_cpus_1.iew.wb_fanout           0.805117                       # average fanout of values written-back
system.switch_cpus_1.commit.commitSquashedInsts     45910761                       # The number of squashed insts skipped by commit
system.switch_cpus_1.commit.branchMispredicts      1087970                       # The number of times a branch was mispredicted
system.switch_cpus_1.commit.committed_per_cycle::samples    189824030                       # Number of insts commited each cycle
system.switch_cpus_1.commit.committed_per_cycle::mean     2.687927                       # Number of insts commited each cycle
system.switch_cpus_1.commit.committed_per_cycle::stdev     3.254442                       # Number of insts commited each cycle
system.switch_cpus_1.commit.committed_per_cycle::underflows            0      0.00%      0.00% # Number of insts commited each cycle
system.switch_cpus_1.commit.committed_per_cycle::0     79794786     42.04%     42.04% # Number of insts commited each cycle
system.switch_cpus_1.commit.committed_per_cycle::1     30678552     16.16%     58.20% # Number of insts commited each cycle
system.switch_cpus_1.commit.committed_per_cycle::2     11758083      6.19%     64.39% # Number of insts commited each cycle
system.switch_cpus_1.commit.committed_per_cycle::3      6896936      3.63%     68.03% # Number of insts commited each cycle
system.switch_cpus_1.commit.committed_per_cycle::4      6358184      3.35%     71.37% # Number of insts commited each cycle
system.switch_cpus_1.commit.committed_per_cycle::5      4336483      2.28%     73.66% # Number of insts commited each cycle
system.switch_cpus_1.commit.committed_per_cycle::6      4306871      2.27%     75.93% # Number of insts commited each cycle
system.switch_cpus_1.commit.committed_per_cycle::7      3161838      1.67%     77.59% # Number of insts commited each cycle
system.switch_cpus_1.commit.committed_per_cycle::8     42532297     22.41%    100.00% # Number of insts commited each cycle
system.switch_cpus_1.commit.committed_per_cycle::overflows            0      0.00%    100.00% # Number of insts commited each cycle
system.switch_cpus_1.commit.committed_per_cycle::min_value            0                       # Number of insts commited each cycle
system.switch_cpus_1.commit.committed_per_cycle::max_value            8                       # Number of insts commited each cycle
system.switch_cpus_1.commit.committed_per_cycle::total    189824030                       # Number of insts commited each cycle
system.switch_cpus_1.commit.committedInsts    510233145                       # Number of instructions committed
system.switch_cpus_1.commit.committedOps    510233145                       # Number of ops (including micro ops) committed
system.switch_cpus_1.commit.swp_count               0                       # Number of s/w prefetches committed
system.switch_cpus_1.commit.refs            170365685                       # Number of memory references committed
system.switch_cpus_1.commit.loads           124442725                       # Number of loads committed
system.switch_cpus_1.commit.membars                 0                       # Number of memory barriers committed
system.switch_cpus_1.commit.branches         42041571                       # Number of branches committed
system.switch_cpus_1.commit.fp_insts        184968968                       # Number of committed floating point instructions.
system.switch_cpus_1.commit.int_insts       404983756                       # Number of committed integer instructions.
system.switch_cpus_1.commit.function_calls      1980172                       # Number of function calls committed.
system.switch_cpus_1.commit.op_class_0::No_OpClass     10233143      2.01%      2.01% # Class of committed instruction
system.switch_cpus_1.commit.op_class_0::IntAlu    235656273     46.19%     48.19% # Class of committed instruction
system.switch_cpus_1.commit.op_class_0::IntMult       179405      0.04%     48.23% # Class of committed instruction
system.switch_cpus_1.commit.op_class_0::IntDiv            0      0.00%     48.23% # Class of committed instruction
system.switch_cpus_1.commit.op_class_0::FloatAdd     40912727      8.02%     56.25% # Class of committed instruction
system.switch_cpus_1.commit.op_class_0::FloatCmp      5677254      1.11%     57.36% # Class of committed instruction
system.switch_cpus_1.commit.op_class_0::FloatCvt      2757034      0.54%     57.90% # Class of committed instruction
system.switch_cpus_1.commit.op_class_0::FloatMult     42206192      8.27%     66.17% # Class of committed instruction
system.switch_cpus_1.commit.op_class_0::FloatMultAcc            0      0.00%     66.17% # Class of committed instruction
system.switch_cpus_1.commit.op_class_0::FloatDiv      1682506      0.33%     66.50% # Class of committed instruction
system.switch_cpus_1.commit.op_class_0::FloatMisc            0      0.00%     66.50% # Class of committed instruction
system.switch_cpus_1.commit.op_class_0::FloatSqrt       562926      0.11%     66.61% # Class of committed instruction
system.switch_cpus_1.commit.op_class_0::SimdAdd            0      0.00%     66.61% # Class of committed instruction
system.switch_cpus_1.commit.op_class_0::SimdAddAcc            0      0.00%     66.61% # Class of committed instruction
system.switch_cpus_1.commit.op_class_0::SimdAlu            0      0.00%     66.61% # Class of committed instruction
system.switch_cpus_1.commit.op_class_0::SimdCmp            0      0.00%     66.61% # Class of committed instruction
system.switch_cpus_1.commit.op_class_0::SimdCvt            0      0.00%     66.61% # Class of committed instruction
system.switch_cpus_1.commit.op_class_0::SimdMisc            0      0.00%     66.61% # Class of committed instruction
system.switch_cpus_1.commit.op_class_0::SimdMult            0      0.00%     66.61% # Class of committed instruction
system.switch_cpus_1.commit.op_class_0::SimdMultAcc            0      0.00%     66.61% # Class of committed instruction
system.switch_cpus_1.commit.op_class_0::SimdShift            0      0.00%     66.61% # Class of committed instruction
system.switch_cpus_1.commit.op_class_0::SimdShiftAcc            0      0.00%     66.61% # Class of committed instruction
system.switch_cpus_1.commit.op_class_0::SimdSqrt            0      0.00%     66.61% # Class of committed instruction
system.switch_cpus_1.commit.op_class_0::SimdFloatAdd            0      0.00%     66.61% # Class of committed instruction
system.switch_cpus_1.commit.op_class_0::SimdFloatAlu            0      0.00%     66.61% # Class of committed instruction
system.switch_cpus_1.commit.op_class_0::SimdFloatCmp            0      0.00%     66.61% # Class of committed instruction
system.switch_cpus_1.commit.op_class_0::SimdFloatCvt            0      0.00%     66.61% # Class of committed instruction
system.switch_cpus_1.commit.op_class_0::SimdFloatDiv            0      0.00%     66.61% # Class of committed instruction
system.switch_cpus_1.commit.op_class_0::SimdFloatMisc            0      0.00%     66.61% # Class of committed instruction
system.switch_cpus_1.commit.op_class_0::SimdFloatMult            0      0.00%     66.61% # Class of committed instruction
system.switch_cpus_1.commit.op_class_0::SimdFloatMultAcc            0      0.00%     66.61% # Class of committed instruction
system.switch_cpus_1.commit.op_class_0::SimdFloatSqrt            0      0.00%     66.61% # Class of committed instruction
system.switch_cpus_1.commit.op_class_0::MemRead     61475344     12.05%     78.66% # Class of committed instruction
system.switch_cpus_1.commit.op_class_0::MemWrite     17720012      3.47%     82.13% # Class of committed instruction
system.switch_cpus_1.commit.op_class_0::FloatMemRead     62967381     12.34%     94.47% # Class of committed instruction
system.switch_cpus_1.commit.op_class_0::FloatMemWrite     28202948      5.53%    100.00% # Class of committed instruction
system.switch_cpus_1.commit.op_class_0::IprAccess            0      0.00%    100.00% # Class of committed instruction
system.switch_cpus_1.commit.op_class_0::InstPrefetch            0      0.00%    100.00% # Class of committed instruction
system.switch_cpus_1.commit.op_class_0::total    510233145                       # Class of committed instruction
system.switch_cpus_1.commit.bw_lim_events     42532297                       # number cycles where commit BW limit reached
system.switch_cpus_1.rob.rob_reads          700792102                       # The number of ROB reads
system.switch_cpus_1.rob.rob_writes        1118913137                       # The number of ROB writes
system.switch_cpus_1.timesIdled                 40556                       # Number of times that the entire CPU went into an idle state and unscheduled itself
system.switch_cpus_1.idleCycles                203956                       # Total number of cycles that the CPU has spent unscheduled due to idling
system.switch_cpus_1.committedInsts         500000002                       # Number of Instructions Simulated
system.switch_cpus_1.committedOps           500000002                       # Number of Ops (including micro ops) Simulated
system.switch_cpus_1.cpi                     0.393252                       # CPI: Cycles Per Instruction
system.switch_cpus_1.cpi_total               0.393252                       # CPI: Total CPI of All Threads
system.switch_cpus_1.ipc                     2.542900                       # IPC: Instructions Per Cycle
system.switch_cpus_1.ipc_total               2.542900                       # IPC: Total IPC of All Threads
system.switch_cpus_1.int_regfile_reads      564284309                       # number of integer regfile reads
system.switch_cpus_1.int_regfile_writes     283265097                       # number of integer regfile writes
system.switch_cpus_1.fp_regfile_reads       213562542                       # number of floating regfile reads
system.switch_cpus_1.fp_regfile_writes      155687709                       # number of floating regfile writes
system.switch_cpus_1.misc_regfile_reads       9285087                       # number of misc regfile reads
system.tol3bus.snoop_filter.tot_requests        15920                       # Total number of requests made to the snoop filter.
system.tol3bus.snoop_filter.hit_single_requests         5904                       # Number of requests hitting in the snoop filter with a single holder of the requested data.
system.tol3bus.snoop_filter.hit_multi_requests            0                       # Number of requests hitting in the snoop filter with multiple (>1) holders of the requested data.
system.tol3bus.snoop_filter.tot_snoops              0                       # Total number of snoops made to the snoop filter.
system.tol3bus.snoop_filter.hit_single_snoops            0                       # Number of snoops hitting in the snoop filter with a single holder of the requested data.
system.tol3bus.snoop_filter.hit_multi_snoops            0                       # Number of snoops hitting in the snoop filter with multiple (>1) holders of the requested data.
system.tol3bus.pwrStateResidencyTicks::UNDEFINED 284203762090659                       # Cumulative time (in ticks) in various power states
system.tol3bus.trans_dist::ReadResp              9074                       # Transaction distribution
system.tol3bus.trans_dist::WritebackDirty         1581                       # Transaction distribution
system.tol3bus.trans_dist::CleanEvict            4323                       # Transaction distribution
system.tol3bus.trans_dist::ReadExReq              942                       # Transaction distribution
system.tol3bus.trans_dist::ReadExResp             942                       # Transaction distribution
system.tol3bus.trans_dist::ReadSharedReq         9074                       # Transaction distribution
system.tol3bus.pkt_count_system.cpu.l2.mem_side::system.l3.cpu_side        25936                       # Packet count per connected master and slave (bytes)
system.tol3bus.pkt_size_system.cpu.l2.mem_side::system.l3.cpu_side       742208                       # Cumulative packet size per connected master and slave (bytes)
system.tol3bus.snoops                               0                       # Total snoops (count)
system.tol3bus.snoopTraffic                         0                       # Total snoop traffic (bytes)
system.tol3bus.snoop_fanout::samples            10016                       # Request fanout histogram
system.tol3bus.snoop_fanout::mean                   0                       # Request fanout histogram
system.tol3bus.snoop_fanout::stdev                  0                       # Request fanout histogram
system.tol3bus.snoop_fanout::underflows             0      0.00%      0.00% # Request fanout histogram
system.tol3bus.snoop_fanout::0                  10016    100.00%    100.00% # Request fanout histogram
system.tol3bus.snoop_fanout::1                      0      0.00%    100.00% # Request fanout histogram
system.tol3bus.snoop_fanout::overflows              0      0.00%    100.00% # Request fanout histogram
system.tol3bus.snoop_fanout::min_value              0                       # Request fanout histogram
system.tol3bus.snoop_fanout::max_value              0                       # Request fanout histogram
system.tol3bus.snoop_fanout::total              10016                       # Request fanout histogram
system.tol3bus.reqLayer0.occupancy            5827833                       # Layer occupancy (ticks)
system.tol3bus.reqLayer0.utilization              0.0                       # Layer utilization (%)
system.tol3bus.respLayer0.occupancy           6670656                       # Layer occupancy (ticks)
system.tol3bus.respLayer0.utilization             0.0                       # Layer utilization (%)

---------- End Simulation Statistics   ----------
