
---------- Begin Simulation Statistics ----------
sim_seconds                                  1.154819                       # Number of seconds simulated
sim_ticks                                1154818840851                       # Number of ticks simulated
final_tick                               18808160231781                       # Number of ticks from beginning of simulation (restored from checkpoints and never reset)
sim_freq                                 1000000000000                       # Frequency of simulated ticks
host_inst_rate                                 522278                       # Simulator instruction rate (inst/s)
host_op_rate                                   522278                       # Simulator op (including micro ops) rate (op/s)
host_tick_rate                              502614028                       # Simulator tick rate (ticks/s)
host_mem_usage                                2396236                       # Number of bytes of host memory used
host_seconds                                  2297.63                       # Real time elapsed on the host
sim_insts                                  1200000011                       # Number of instructions simulated
sim_ops                                    1200000011                       # Number of ops (including micro ops) simulated
system.voltage_domain.voltage                       1                       # Voltage in Volts
system.clk_domain.clock                          1000                       # Clock period in ticks
system.mem_ctrls0.pwrStateResidencyTicks::UNDEFINED 18808160231781                       # Cumulative time (in ticks) in various power states
system.mem_ctrls0.bytes_read::cpu.inst            192                       # Number of bytes read from this memory
system.mem_ctrls0.bytes_read::switch_cpus.inst       111488                       # Number of bytes read from this memory
system.mem_ctrls0.bytes_read::switch_cpus.data      8029184                       # Number of bytes read from this memory
system.mem_ctrls0.bytes_read::switch_cpus_1.inst        12800                       # Number of bytes read from this memory
system.mem_ctrls0.bytes_read::switch_cpus_1.data      1359360                       # Number of bytes read from this memory
system.mem_ctrls0.bytes_read::total           9513024                       # Number of bytes read from this memory
system.mem_ctrls0.bytes_inst_read::cpu.inst          192                       # Number of instructions bytes read from this memory
system.mem_ctrls0.bytes_inst_read::switch_cpus.inst       111488                       # Number of instructions bytes read from this memory
system.mem_ctrls0.bytes_inst_read::switch_cpus_1.inst        12800                       # Number of instructions bytes read from this memory
system.mem_ctrls0.bytes_inst_read::total       124480                       # Number of instructions bytes read from this memory
system.mem_ctrls0.bytes_written::writebacks      5927808                       # Number of bytes written to this memory
system.mem_ctrls0.bytes_written::total        5927808                       # Number of bytes written to this memory
system.mem_ctrls0.num_reads::cpu.inst               3                       # Number of read requests responded to by this memory
system.mem_ctrls0.num_reads::switch_cpus.inst         1742                       # Number of read requests responded to by this memory
system.mem_ctrls0.num_reads::switch_cpus.data       125456                       # Number of read requests responded to by this memory
system.mem_ctrls0.num_reads::switch_cpus_1.inst          200                       # Number of read requests responded to by this memory
system.mem_ctrls0.num_reads::switch_cpus_1.data        21240                       # Number of read requests responded to by this memory
system.mem_ctrls0.num_reads::total             148641                       # Number of read requests responded to by this memory
system.mem_ctrls0.num_writes::writebacks        92622                       # Number of write requests responded to by this memory
system.mem_ctrls0.num_writes::total             92622                       # Number of write requests responded to by this memory
system.mem_ctrls0.bw_read::cpu.inst               166                       # Total read bandwidth from this memory (bytes/s)
system.mem_ctrls0.bw_read::switch_cpus.inst        96542                       # Total read bandwidth from this memory (bytes/s)
system.mem_ctrls0.bw_read::switch_cpus.data      6952765                       # Total read bandwidth from this memory (bytes/s)
system.mem_ctrls0.bw_read::switch_cpus_1.inst        11084                       # Total read bandwidth from this memory (bytes/s)
system.mem_ctrls0.bw_read::switch_cpus_1.data      1177120                       # Total read bandwidth from this memory (bytes/s)
system.mem_ctrls0.bw_read::total              8237676                       # Total read bandwidth from this memory (bytes/s)
system.mem_ctrls0.bw_inst_read::cpu.inst          166                       # Instruction read bandwidth from this memory (bytes/s)
system.mem_ctrls0.bw_inst_read::switch_cpus.inst        96542                       # Instruction read bandwidth from this memory (bytes/s)
system.mem_ctrls0.bw_inst_read::switch_cpus_1.inst        11084                       # Instruction read bandwidth from this memory (bytes/s)
system.mem_ctrls0.bw_inst_read::total          107792                       # Instruction read bandwidth from this memory (bytes/s)
system.mem_ctrls0.bw_write::writebacks        5133106                       # Write bandwidth from this memory (bytes/s)
system.mem_ctrls0.bw_write::total             5133106                       # Write bandwidth from this memory (bytes/s)
system.mem_ctrls0.bw_total::writebacks        5133106                       # Total bandwidth to/from this memory (bytes/s)
system.mem_ctrls0.bw_total::cpu.inst              166                       # Total bandwidth to/from this memory (bytes/s)
system.mem_ctrls0.bw_total::switch_cpus.inst        96542                       # Total bandwidth to/from this memory (bytes/s)
system.mem_ctrls0.bw_total::switch_cpus.data      6952765                       # Total bandwidth to/from this memory (bytes/s)
system.mem_ctrls0.bw_total::switch_cpus_1.inst        11084                       # Total bandwidth to/from this memory (bytes/s)
system.mem_ctrls0.bw_total::switch_cpus_1.data      1177120                       # Total bandwidth to/from this memory (bytes/s)
system.mem_ctrls0.bw_total::total            13370783                       # Total bandwidth to/from this memory (bytes/s)
system.mem_ctrls0.readReqs                     148641                       # Number of read requests accepted
system.mem_ctrls0.writeReqs                     92622                       # Number of write requests accepted
system.mem_ctrls0.readBursts                   148641                       # Number of DRAM read bursts, including those serviced by the write queue
system.mem_ctrls0.writeBursts                   92622                       # Number of DRAM write bursts, including those merged in the write queue
system.mem_ctrls0.bytesReadDRAM               9506752                       # Total number of bytes read from DRAM
system.mem_ctrls0.bytesReadWrQ                   6272                       # Total number of bytes read from write queue
system.mem_ctrls0.bytesWritten                5926528                       # Total number of bytes written to DRAM
system.mem_ctrls0.bytesReadSys                9513024                       # Total read bytes from the system interface side
system.mem_ctrls0.bytesWrittenSys             5927808                       # Total written bytes from the system interface side
system.mem_ctrls0.servicedByWrQ                    98                       # Number of DRAM read bursts serviced by the write queue
system.mem_ctrls0.mergedWrBursts                    0                       # Number of DRAM write bursts merged with an existing one
system.mem_ctrls0.neitherReadNorWriteReqs            0                       # Number of requests that are neither read nor write
system.mem_ctrls0.perBankRdBursts::0             9019                       # Per bank write bursts
system.mem_ctrls0.perBankRdBursts::1             9310                       # Per bank write bursts
system.mem_ctrls0.perBankRdBursts::2             9342                       # Per bank write bursts
system.mem_ctrls0.perBankRdBursts::3             9847                       # Per bank write bursts
system.mem_ctrls0.perBankRdBursts::4             9762                       # Per bank write bursts
system.mem_ctrls0.perBankRdBursts::5             9356                       # Per bank write bursts
system.mem_ctrls0.perBankRdBursts::6             8867                       # Per bank write bursts
system.mem_ctrls0.perBankRdBursts::7             8930                       # Per bank write bursts
system.mem_ctrls0.perBankRdBursts::8             9526                       # Per bank write bursts
system.mem_ctrls0.perBankRdBursts::9             9713                       # Per bank write bursts
system.mem_ctrls0.perBankRdBursts::10            9112                       # Per bank write bursts
system.mem_ctrls0.perBankRdBursts::11            9519                       # Per bank write bursts
system.mem_ctrls0.perBankRdBursts::12            9258                       # Per bank write bursts
system.mem_ctrls0.perBankRdBursts::13            9143                       # Per bank write bursts
system.mem_ctrls0.perBankRdBursts::14            9042                       # Per bank write bursts
system.mem_ctrls0.perBankRdBursts::15            8797                       # Per bank write bursts
system.mem_ctrls0.perBankWrBursts::0             5867                       # Per bank write bursts
system.mem_ctrls0.perBankWrBursts::1             6085                       # Per bank write bursts
system.mem_ctrls0.perBankWrBursts::2             5880                       # Per bank write bursts
system.mem_ctrls0.perBankWrBursts::3             6141                       # Per bank write bursts
system.mem_ctrls0.perBankWrBursts::4             6052                       # Per bank write bursts
system.mem_ctrls0.perBankWrBursts::5             5787                       # Per bank write bursts
system.mem_ctrls0.perBankWrBursts::6             5406                       # Per bank write bursts
system.mem_ctrls0.perBankWrBursts::7             5392                       # Per bank write bursts
system.mem_ctrls0.perBankWrBursts::8             5504                       # Per bank write bursts
system.mem_ctrls0.perBankWrBursts::9             5671                       # Per bank write bursts
system.mem_ctrls0.perBankWrBursts::10            5859                       # Per bank write bursts
system.mem_ctrls0.perBankWrBursts::11            6209                       # Per bank write bursts
system.mem_ctrls0.perBankWrBursts::12            5921                       # Per bank write bursts
system.mem_ctrls0.perBankWrBursts::13            5682                       # Per bank write bursts
system.mem_ctrls0.perBankWrBursts::14            5560                       # Per bank write bursts
system.mem_ctrls0.perBankWrBursts::15            5586                       # Per bank write bursts
system.mem_ctrls0.numRdRetry                        0                       # Number of times read queue was full causing retry
system.mem_ctrls0.numWrRetry                        0                       # Number of times write queue was full causing retry
system.mem_ctrls0.totGap                 1154817469890                       # Total gap between requests
system.mem_ctrls0.readPktSize::0                    0                       # Read request sizes (log2)
system.mem_ctrls0.readPktSize::1                    0                       # Read request sizes (log2)
system.mem_ctrls0.readPktSize::2                    0                       # Read request sizes (log2)
system.mem_ctrls0.readPktSize::3                    0                       # Read request sizes (log2)
system.mem_ctrls0.readPktSize::4                    0                       # Read request sizes (log2)
system.mem_ctrls0.readPktSize::5                    0                       # Read request sizes (log2)
system.mem_ctrls0.readPktSize::6               148641                       # Read request sizes (log2)
system.mem_ctrls0.writePktSize::0                   0                       # Write request sizes (log2)
system.mem_ctrls0.writePktSize::1                   0                       # Write request sizes (log2)
system.mem_ctrls0.writePktSize::2                   0                       # Write request sizes (log2)
system.mem_ctrls0.writePktSize::3                   0                       # Write request sizes (log2)
system.mem_ctrls0.writePktSize::4                   0                       # Write request sizes (log2)
system.mem_ctrls0.writePktSize::5                   0                       # Write request sizes (log2)
system.mem_ctrls0.writePktSize::6               92622                       # Write request sizes (log2)
system.mem_ctrls0.rdQLenPdf::0                 146985                       # What read queue length does an incoming req see
system.mem_ctrls0.rdQLenPdf::1                   1529                       # What read queue length does an incoming req see
system.mem_ctrls0.rdQLenPdf::2                     29                       # What read queue length does an incoming req see
system.mem_ctrls0.rdQLenPdf::3                      0                       # What read queue length does an incoming req see
system.mem_ctrls0.rdQLenPdf::4                      0                       # What read queue length does an incoming req see
system.mem_ctrls0.rdQLenPdf::5                      0                       # What read queue length does an incoming req see
system.mem_ctrls0.rdQLenPdf::6                      0                       # What read queue length does an incoming req see
system.mem_ctrls0.rdQLenPdf::7                      0                       # What read queue length does an incoming req see
system.mem_ctrls0.rdQLenPdf::8                      0                       # What read queue length does an incoming req see
system.mem_ctrls0.rdQLenPdf::9                      0                       # What read queue length does an incoming req see
system.mem_ctrls0.rdQLenPdf::10                     0                       # What read queue length does an incoming req see
system.mem_ctrls0.rdQLenPdf::11                     0                       # What read queue length does an incoming req see
system.mem_ctrls0.rdQLenPdf::12                     0                       # What read queue length does an incoming req see
system.mem_ctrls0.rdQLenPdf::13                     0                       # What read queue length does an incoming req see
system.mem_ctrls0.rdQLenPdf::14                     0                       # What read queue length does an incoming req see
system.mem_ctrls0.rdQLenPdf::15                     0                       # What read queue length does an incoming req see
system.mem_ctrls0.rdQLenPdf::16                     0                       # What read queue length does an incoming req see
system.mem_ctrls0.rdQLenPdf::17                     0                       # What read queue length does an incoming req see
system.mem_ctrls0.rdQLenPdf::18                     0                       # What read queue length does an incoming req see
system.mem_ctrls0.rdQLenPdf::19                     0                       # What read queue length does an incoming req see
system.mem_ctrls0.rdQLenPdf::20                     0                       # What read queue length does an incoming req see
system.mem_ctrls0.rdQLenPdf::21                     0                       # What read queue length does an incoming req see
system.mem_ctrls0.rdQLenPdf::22                     0                       # What read queue length does an incoming req see
system.mem_ctrls0.rdQLenPdf::23                     0                       # What read queue length does an incoming req see
system.mem_ctrls0.rdQLenPdf::24                     0                       # What read queue length does an incoming req see
system.mem_ctrls0.rdQLenPdf::25                     0                       # What read queue length does an incoming req see
system.mem_ctrls0.rdQLenPdf::26                     0                       # What read queue length does an incoming req see
system.mem_ctrls0.rdQLenPdf::27                     0                       # What read queue length does an incoming req see
system.mem_ctrls0.rdQLenPdf::28                     0                       # What read queue length does an incoming req see
system.mem_ctrls0.rdQLenPdf::29                     0                       # What read queue length does an incoming req see
system.mem_ctrls0.rdQLenPdf::30                     0                       # What read queue length does an incoming req see
system.mem_ctrls0.rdQLenPdf::31                     0                       # What read queue length does an incoming req see
system.mem_ctrls0.wrQLenPdf::0                      2                       # What write queue length does an incoming req see
system.mem_ctrls0.wrQLenPdf::1                      2                       # What write queue length does an incoming req see
system.mem_ctrls0.wrQLenPdf::2                      2                       # What write queue length does an incoming req see
system.mem_ctrls0.wrQLenPdf::3                      2                       # What write queue length does an incoming req see
system.mem_ctrls0.wrQLenPdf::4                      2                       # What write queue length does an incoming req see
system.mem_ctrls0.wrQLenPdf::5                      2                       # What write queue length does an incoming req see
system.mem_ctrls0.wrQLenPdf::6                      2                       # What write queue length does an incoming req see
system.mem_ctrls0.wrQLenPdf::7                      2                       # What write queue length does an incoming req see
system.mem_ctrls0.wrQLenPdf::8                      2                       # What write queue length does an incoming req see
system.mem_ctrls0.wrQLenPdf::9                      2                       # What write queue length does an incoming req see
system.mem_ctrls0.wrQLenPdf::10                     2                       # What write queue length does an incoming req see
system.mem_ctrls0.wrQLenPdf::11                     2                       # What write queue length does an incoming req see
system.mem_ctrls0.wrQLenPdf::12                     2                       # What write queue length does an incoming req see
system.mem_ctrls0.wrQLenPdf::13                     2                       # What write queue length does an incoming req see
system.mem_ctrls0.wrQLenPdf::14                     2                       # What write queue length does an incoming req see
system.mem_ctrls0.wrQLenPdf::15                  4419                       # What write queue length does an incoming req see
system.mem_ctrls0.wrQLenPdf::16                  4491                       # What write queue length does an incoming req see
system.mem_ctrls0.wrQLenPdf::17                  5168                       # What write queue length does an incoming req see
system.mem_ctrls0.wrQLenPdf::18                  5224                       # What write queue length does an incoming req see
system.mem_ctrls0.wrQLenPdf::19                  5226                       # What write queue length does an incoming req see
system.mem_ctrls0.wrQLenPdf::20                  5221                       # What write queue length does an incoming req see
system.mem_ctrls0.wrQLenPdf::21                  5226                       # What write queue length does an incoming req see
system.mem_ctrls0.wrQLenPdf::22                  5255                       # What write queue length does an incoming req see
system.mem_ctrls0.wrQLenPdf::23                  5260                       # What write queue length does an incoming req see
system.mem_ctrls0.wrQLenPdf::24                  5234                       # What write queue length does an incoming req see
system.mem_ctrls0.wrQLenPdf::25                  5236                       # What write queue length does an incoming req see
system.mem_ctrls0.wrQLenPdf::26                  5223                       # What write queue length does an incoming req see
system.mem_ctrls0.wrQLenPdf::27                  5219                       # What write queue length does an incoming req see
system.mem_ctrls0.wrQLenPdf::28                  5221                       # What write queue length does an incoming req see
system.mem_ctrls0.wrQLenPdf::29                  5213                       # What write queue length does an incoming req see
system.mem_ctrls0.wrQLenPdf::30                  5220                       # What write queue length does an incoming req see
system.mem_ctrls0.wrQLenPdf::31                  5205                       # What write queue length does an incoming req see
system.mem_ctrls0.wrQLenPdf::32                  5204                       # What write queue length does an incoming req see
system.mem_ctrls0.wrQLenPdf::33                   116                       # What write queue length does an incoming req see
system.mem_ctrls0.wrQLenPdf::34                    11                       # What write queue length does an incoming req see
system.mem_ctrls0.wrQLenPdf::35                     0                       # What write queue length does an incoming req see
system.mem_ctrls0.wrQLenPdf::36                     0                       # What write queue length does an incoming req see
system.mem_ctrls0.wrQLenPdf::37                     0                       # What write queue length does an incoming req see
system.mem_ctrls0.wrQLenPdf::38                     0                       # What write queue length does an incoming req see
system.mem_ctrls0.wrQLenPdf::39                     0                       # What write queue length does an incoming req see
system.mem_ctrls0.wrQLenPdf::40                     0                       # What write queue length does an incoming req see
system.mem_ctrls0.wrQLenPdf::41                     0                       # What write queue length does an incoming req see
system.mem_ctrls0.wrQLenPdf::42                     0                       # What write queue length does an incoming req see
system.mem_ctrls0.wrQLenPdf::43                     0                       # What write queue length does an incoming req see
system.mem_ctrls0.wrQLenPdf::44                     0                       # What write queue length does an incoming req see
system.mem_ctrls0.wrQLenPdf::45                     0                       # What write queue length does an incoming req see
system.mem_ctrls0.wrQLenPdf::46                     0                       # What write queue length does an incoming req see
system.mem_ctrls0.wrQLenPdf::47                     0                       # What write queue length does an incoming req see
system.mem_ctrls0.wrQLenPdf::48                     0                       # What write queue length does an incoming req see
system.mem_ctrls0.wrQLenPdf::49                     0                       # What write queue length does an incoming req see
system.mem_ctrls0.wrQLenPdf::50                     0                       # What write queue length does an incoming req see
system.mem_ctrls0.wrQLenPdf::51                     0                       # What write queue length does an incoming req see
system.mem_ctrls0.wrQLenPdf::52                     0                       # What write queue length does an incoming req see
system.mem_ctrls0.wrQLenPdf::53                     0                       # What write queue length does an incoming req see
system.mem_ctrls0.wrQLenPdf::54                     0                       # What write queue length does an incoming req see
system.mem_ctrls0.wrQLenPdf::55                     0                       # What write queue length does an incoming req see
system.mem_ctrls0.wrQLenPdf::56                     0                       # What write queue length does an incoming req see
system.mem_ctrls0.wrQLenPdf::57                     0                       # What write queue length does an incoming req see
system.mem_ctrls0.wrQLenPdf::58                     0                       # What write queue length does an incoming req see
system.mem_ctrls0.wrQLenPdf::59                     0                       # What write queue length does an incoming req see
system.mem_ctrls0.wrQLenPdf::60                     0                       # What write queue length does an incoming req see
system.mem_ctrls0.wrQLenPdf::61                     0                       # What write queue length does an incoming req see
system.mem_ctrls0.wrQLenPdf::62                     0                       # What write queue length does an incoming req see
system.mem_ctrls0.wrQLenPdf::63                     0                       # What write queue length does an incoming req see
system.mem_ctrls0.bytesPerActivate::samples       212639                       # Bytes accessed per row activation
system.mem_ctrls0.bytesPerActivate::mean    72.579423                       # Bytes accessed per row activation
system.mem_ctrls0.bytesPerActivate::gmean    68.181531                       # Bytes accessed per row activation
system.mem_ctrls0.bytesPerActivate::stdev    52.542364                       # Bytes accessed per row activation
system.mem_ctrls0.bytesPerActivate::0-127       197901     93.07%     93.07% # Bytes accessed per row activation
system.mem_ctrls0.bytesPerActivate::128-255        12666      5.96%     99.03% # Bytes accessed per row activation
system.mem_ctrls0.bytesPerActivate::256-383          834      0.39%     99.42% # Bytes accessed per row activation
system.mem_ctrls0.bytesPerActivate::384-511          357      0.17%     99.59% # Bytes accessed per row activation
system.mem_ctrls0.bytesPerActivate::512-639          209      0.10%     99.68% # Bytes accessed per row activation
system.mem_ctrls0.bytesPerActivate::640-767          264      0.12%     99.81% # Bytes accessed per row activation
system.mem_ctrls0.bytesPerActivate::768-895          143      0.07%     99.88% # Bytes accessed per row activation
system.mem_ctrls0.bytesPerActivate::896-1023           93      0.04%     99.92% # Bytes accessed per row activation
system.mem_ctrls0.bytesPerActivate::1024-1151          172      0.08%    100.00% # Bytes accessed per row activation
system.mem_ctrls0.bytesPerActivate::total       212639                       # Bytes accessed per row activation
system.mem_ctrls0.rdPerTurnAround::samples         5205                       # Reads before turning the bus around for writes
system.mem_ctrls0.rdPerTurnAround::mean     28.538136                       # Reads before turning the bus around for writes
system.mem_ctrls0.rdPerTurnAround::stdev   359.099877                       # Reads before turning the bus around for writes
system.mem_ctrls0.rdPerTurnAround::0-1023         5204     99.98%     99.98% # Reads before turning the bus around for writes
system.mem_ctrls0.rdPerTurnAround::25600-26623            1      0.02%    100.00% # Reads before turning the bus around for writes
system.mem_ctrls0.rdPerTurnAround::total         5205                       # Reads before turning the bus around for writes
system.mem_ctrls0.wrPerTurnAround::samples         5205                       # Writes before turning the bus around for reads
system.mem_ctrls0.wrPerTurnAround::mean     17.790970                       # Writes before turning the bus around for reads
system.mem_ctrls0.wrPerTurnAround::gmean    17.772481                       # Writes before turning the bus around for reads
system.mem_ctrls0.wrPerTurnAround::stdev     0.797114                       # Writes before turning the bus around for reads
system.mem_ctrls0.wrPerTurnAround::16             729     14.01%     14.01% # Writes before turning the bus around for reads
system.mem_ctrls0.wrPerTurnAround::17              49      0.94%     14.95% # Writes before turning the bus around for reads
system.mem_ctrls0.wrPerTurnAround::18            4061     78.02%     92.97% # Writes before turning the bus around for reads
system.mem_ctrls0.wrPerTurnAround::19             327      6.28%     99.25% # Writes before turning the bus around for reads
system.mem_ctrls0.wrPerTurnAround::20              31      0.60%     99.85% # Writes before turning the bus around for reads
system.mem_ctrls0.wrPerTurnAround::21               4      0.08%     99.92% # Writes before turning the bus around for reads
system.mem_ctrls0.wrPerTurnAround::22               2      0.04%     99.96% # Writes before turning the bus around for reads
system.mem_ctrls0.wrPerTurnAround::23               2      0.04%    100.00% # Writes before turning the bus around for reads
system.mem_ctrls0.wrPerTurnAround::total         5205                       # Writes before turning the bus around for reads
system.mem_ctrls0.totQLat                 28104294221                       # Total ticks spent queuing
system.mem_ctrls0.totMemAccLat            30889475471                       # Total ticks spent from burst creation until serviced by the DRAM
system.mem_ctrls0.totBusLat                 742715000                       # Total ticks spent in databus transfers
system.mem_ctrls0.avgQLat                   189199.72                       # Average queueing delay per DRAM burst
system.mem_ctrls0.avgBusLat                   5000.00                       # Average bus latency per DRAM burst
system.mem_ctrls0.avgMemAccLat              207949.72                       # Average memory access latency per DRAM burst
system.mem_ctrls0.avgRdBW                        8.23                       # Average DRAM read bandwidth in MiByte/s
system.mem_ctrls0.avgWrBW                        5.13                       # Average achieved write bandwidth in MiByte/s
system.mem_ctrls0.avgRdBWSys                     8.24                       # Average system read bandwidth in MiByte/s
system.mem_ctrls0.avgWrBWSys                     5.13                       # Average system write bandwidth in MiByte/s
system.mem_ctrls0.peakBW                     12800.00                       # Theoretical peak bandwidth in MiByte/s
system.mem_ctrls0.busUtil                        0.10                       # Data bus utilization in percentage
system.mem_ctrls0.busUtilRead                    0.06                       # Data bus utilization in percentage for reads
system.mem_ctrls0.busUtilWrite                   0.04                       # Data bus utilization in percentage for writes
system.mem_ctrls0.avgRdQLen                      1.00                       # Average read queue length when enqueuing
system.mem_ctrls0.avgWrQLen                     20.88                       # Average write queue length when enqueuing
system.mem_ctrls0.readRowHits                   19530                       # Number of row buffer hits during reads
system.mem_ctrls0.writeRowHits                   8975                       # Number of row buffer hits during writes
system.mem_ctrls0.readRowHitRate                13.15                       # Row buffer hit rate for reads
system.mem_ctrls0.writeRowHitRate                9.69                       # Row buffer hit rate for writes
system.mem_ctrls0.avgGap                   4786550.24                       # Average gap between requests
system.mem_ctrls0.pageHitRate                   11.82                       # Row buffer hit rate, read and write combined
system.mem_ctrls0_0.actEnergy               763751520                       # Energy for activate commands per rank (pJ)
system.mem_ctrls0_0.preEnergy               405943560                       # Energy for precharge commands per rank (pJ)
system.mem_ctrls0_0.readEnergy              531451620                       # Energy for read commands per rank (pJ)
system.mem_ctrls0_0.writeEnergy             243304200                       # Energy for write commands per rank (pJ)
system.mem_ctrls0_0.refreshEnergy        59372994720.000015                       # Energy for refresh commands per rank (pJ)
system.mem_ctrls0_0.actBackEnergy         20717225700                       # Energy for active background per rank (pJ)
system.mem_ctrls0_0.preBackEnergy          3471701760                       # Energy for precharge background per rank (pJ)
system.mem_ctrls0_0.actPowerDownEnergy   117223550070                       # Energy for active power-down per rank (pJ)
system.mem_ctrls0_0.prePowerDownEnergy    98845752960                       # Energy for precharge power-down per rank (pJ)
system.mem_ctrls0_0.selfRefreshEnergy    154568307750                       # Energy for self refresh per rank (pJ)
system.mem_ctrls0_0.totalEnergy          456173066430                       # Total energy per rank (pJ)
system.mem_ctrls0_0.averagePower           395.016989                       # Core power per rank (mW)
system.mem_ctrls0_0.totalIdleTime        1100279409467                       # Total Idle time Per DRAM Rank
system.mem_ctrls0_0.memoryStateTime::IDLE   6959649708                       # Time in different power states
system.mem_ctrls0_0.memoryStateTime::REF  25269734000                       # Time in different power states
system.mem_ctrls0_0.memoryStateTime::SREF 585800683461                       # Time in different power states
system.mem_ctrls0_0.memoryStateTime::PRE_PDN 257410878123                       # Time in different power states
system.mem_ctrls0_0.memoryStateTime::ACT  22308777286                       # Time in different power states
system.mem_ctrls0_0.memoryStateTime::ACT_PDN 257069118273                       # Time in different power states
system.mem_ctrls0_1.actEnergy               754498080                       # Energy for activate commands per rank (pJ)
system.mem_ctrls0_1.preEnergy               401021445                       # Energy for precharge commands per rank (pJ)
system.mem_ctrls0_1.readEnergy              529145400                       # Energy for read commands per rank (pJ)
system.mem_ctrls0_1.writeEnergy             240078240                       # Energy for write commands per rank (pJ)
system.mem_ctrls0_1.refreshEnergy        59239003200.000015                       # Energy for refresh commands per rank (pJ)
system.mem_ctrls0_1.actBackEnergy         20520152760                       # Energy for active background per rank (pJ)
system.mem_ctrls0_1.preBackEnergy          3478448640                       # Energy for precharge background per rank (pJ)
system.mem_ctrls0_1.actPowerDownEnergy   116763101790                       # Energy for active power-down per rank (pJ)
system.mem_ctrls0_1.prePowerDownEnergy    98567117760                       # Energy for precharge power-down per rank (pJ)
system.mem_ctrls0_1.selfRefreshEnergy    155118216120                       # Energy for self refresh per rank (pJ)
system.mem_ctrls0_1.totalEnergy          455637990615                       # Total energy per rank (pJ)
system.mem_ctrls0_1.averagePower           394.553648                       # Core power per rank (mW)
system.mem_ctrls0_1.totalIdleTime        1100698082168                       # Total Idle time Per DRAM Rank
system.mem_ctrls0_1.memoryStateTime::IDLE   6978166884                       # Time in different power states
system.mem_ctrls0_1.memoryStateTime::REF  25213420000                       # Time in different power states
system.mem_ctrls0_1.memoryStateTime::SREF 587954851711                       # Time in different power states
system.mem_ctrls0_1.memoryStateTime::PRE_PDN 256685154317                       # Time in different power states
system.mem_ctrls0_1.memoryStateTime::ACT  21927947159                       # Time in different power states
system.mem_ctrls0_1.memoryStateTime::ACT_PDN 256059300780                       # Time in different power states
system.mem_ctrls1.pwrStateResidencyTicks::UNDEFINED 18808160231781                       # Cumulative time (in ticks) in various power states
system.mem_ctrls1.bytes_read::cpu.inst            128                       # Number of bytes read from this memory
system.mem_ctrls1.bytes_read::cpu.data            192                       # Number of bytes read from this memory
system.mem_ctrls1.bytes_read::switch_cpus.inst       110528                       # Number of bytes read from this memory
system.mem_ctrls1.bytes_read::switch_cpus.data      8072192                       # Number of bytes read from this memory
system.mem_ctrls1.bytes_read::switch_cpus_1.inst        12800                       # Number of bytes read from this memory
system.mem_ctrls1.bytes_read::switch_cpus_1.data      1377408                       # Number of bytes read from this memory
system.mem_ctrls1.bytes_read::total           9573248                       # Number of bytes read from this memory
system.mem_ctrls1.bytes_inst_read::cpu.inst          128                       # Number of instructions bytes read from this memory
system.mem_ctrls1.bytes_inst_read::switch_cpus.inst       110528                       # Number of instructions bytes read from this memory
system.mem_ctrls1.bytes_inst_read::switch_cpus_1.inst        12800                       # Number of instructions bytes read from this memory
system.mem_ctrls1.bytes_inst_read::total       123456                       # Number of instructions bytes read from this memory
system.mem_ctrls1.bytes_written::writebacks      5956160                       # Number of bytes written to this memory
system.mem_ctrls1.bytes_written::total        5956160                       # Number of bytes written to this memory
system.mem_ctrls1.num_reads::cpu.inst               2                       # Number of read requests responded to by this memory
system.mem_ctrls1.num_reads::cpu.data               3                       # Number of read requests responded to by this memory
system.mem_ctrls1.num_reads::switch_cpus.inst         1727                       # Number of read requests responded to by this memory
system.mem_ctrls1.num_reads::switch_cpus.data       126128                       # Number of read requests responded to by this memory
system.mem_ctrls1.num_reads::switch_cpus_1.inst          200                       # Number of read requests responded to by this memory
system.mem_ctrls1.num_reads::switch_cpus_1.data        21522                       # Number of read requests responded to by this memory
system.mem_ctrls1.num_reads::total             149582                       # Number of read requests responded to by this memory
system.mem_ctrls1.num_writes::writebacks        93065                       # Number of write requests responded to by this memory
system.mem_ctrls1.num_writes::total             93065                       # Number of write requests responded to by this memory
system.mem_ctrls1.bw_read::cpu.inst               111                       # Total read bandwidth from this memory (bytes/s)
system.mem_ctrls1.bw_read::cpu.data               166                       # Total read bandwidth from this memory (bytes/s)
system.mem_ctrls1.bw_read::switch_cpus.inst        95710                       # Total read bandwidth from this memory (bytes/s)
system.mem_ctrls1.bw_read::switch_cpus.data      6990007                       # Total read bandwidth from this memory (bytes/s)
system.mem_ctrls1.bw_read::switch_cpus_1.inst        11084                       # Total read bandwidth from this memory (bytes/s)
system.mem_ctrls1.bw_read::switch_cpus_1.data      1192748                       # Total read bandwidth from this memory (bytes/s)
system.mem_ctrls1.bw_read::total              8289827                       # Total read bandwidth from this memory (bytes/s)
system.mem_ctrls1.bw_inst_read::cpu.inst          111                       # Instruction read bandwidth from this memory (bytes/s)
system.mem_ctrls1.bw_inst_read::switch_cpus.inst        95710                       # Instruction read bandwidth from this memory (bytes/s)
system.mem_ctrls1.bw_inst_read::switch_cpus_1.inst        11084                       # Instruction read bandwidth from this memory (bytes/s)
system.mem_ctrls1.bw_inst_read::total          106905                       # Instruction read bandwidth from this memory (bytes/s)
system.mem_ctrls1.bw_write::writebacks        5157657                       # Write bandwidth from this memory (bytes/s)
system.mem_ctrls1.bw_write::total             5157657                       # Write bandwidth from this memory (bytes/s)
system.mem_ctrls1.bw_total::writebacks        5157657                       # Total bandwidth to/from this memory (bytes/s)
system.mem_ctrls1.bw_total::cpu.inst              111                       # Total bandwidth to/from this memory (bytes/s)
system.mem_ctrls1.bw_total::cpu.data              166                       # Total bandwidth to/from this memory (bytes/s)
system.mem_ctrls1.bw_total::switch_cpus.inst        95710                       # Total bandwidth to/from this memory (bytes/s)
system.mem_ctrls1.bw_total::switch_cpus.data      6990007                       # Total bandwidth to/from this memory (bytes/s)
system.mem_ctrls1.bw_total::switch_cpus_1.inst        11084                       # Total bandwidth to/from this memory (bytes/s)
system.mem_ctrls1.bw_total::switch_cpus_1.data      1192748                       # Total bandwidth to/from this memory (bytes/s)
system.mem_ctrls1.bw_total::total            13447484                       # Total bandwidth to/from this memory (bytes/s)
system.mem_ctrls1.readReqs                     149582                       # Number of read requests accepted
system.mem_ctrls1.writeReqs                     93065                       # Number of write requests accepted
system.mem_ctrls1.readBursts                   149582                       # Number of DRAM read bursts, including those serviced by the write queue
system.mem_ctrls1.writeBursts                   93065                       # Number of DRAM write bursts, including those merged in the write queue
system.mem_ctrls1.bytesReadDRAM               9568192                       # Total number of bytes read from DRAM
system.mem_ctrls1.bytesReadWrQ                   5056                       # Total number of bytes read from write queue
system.mem_ctrls1.bytesWritten                5954432                       # Total number of bytes written to DRAM
system.mem_ctrls1.bytesReadSys                9573248                       # Total read bytes from the system interface side
system.mem_ctrls1.bytesWrittenSys             5956160                       # Total written bytes from the system interface side
system.mem_ctrls1.servicedByWrQ                    79                       # Number of DRAM read bursts serviced by the write queue
system.mem_ctrls1.mergedWrBursts                    0                       # Number of DRAM write bursts merged with an existing one
system.mem_ctrls1.neitherReadNorWriteReqs            0                       # Number of requests that are neither read nor write
system.mem_ctrls1.perBankRdBursts::0             9137                       # Per bank write bursts
system.mem_ctrls1.perBankRdBursts::1             9414                       # Per bank write bursts
system.mem_ctrls1.perBankRdBursts::2             9453                       # Per bank write bursts
system.mem_ctrls1.perBankRdBursts::3             9717                       # Per bank write bursts
system.mem_ctrls1.perBankRdBursts::4             9690                       # Per bank write bursts
system.mem_ctrls1.perBankRdBursts::5             9646                       # Per bank write bursts
system.mem_ctrls1.perBankRdBursts::6             8833                       # Per bank write bursts
system.mem_ctrls1.perBankRdBursts::7             9102                       # Per bank write bursts
system.mem_ctrls1.perBankRdBursts::8             9519                       # Per bank write bursts
system.mem_ctrls1.perBankRdBursts::9             9837                       # Per bank write bursts
system.mem_ctrls1.perBankRdBursts::10            9217                       # Per bank write bursts
system.mem_ctrls1.perBankRdBursts::11            9601                       # Per bank write bursts
system.mem_ctrls1.perBankRdBursts::12            9334                       # Per bank write bursts
system.mem_ctrls1.perBankRdBursts::13            9168                       # Per bank write bursts
system.mem_ctrls1.perBankRdBursts::14            8878                       # Per bank write bursts
system.mem_ctrls1.perBankRdBursts::15            8957                       # Per bank write bursts
system.mem_ctrls1.perBankWrBursts::0             5896                       # Per bank write bursts
system.mem_ctrls1.perBankWrBursts::1             6060                       # Per bank write bursts
system.mem_ctrls1.perBankWrBursts::2             5900                       # Per bank write bursts
system.mem_ctrls1.perBankWrBursts::3             6080                       # Per bank write bursts
system.mem_ctrls1.perBankWrBursts::4             6005                       # Per bank write bursts
system.mem_ctrls1.perBankWrBursts::5             5960                       # Per bank write bursts
system.mem_ctrls1.perBankWrBursts::6             5347                       # Per bank write bursts
system.mem_ctrls1.perBankWrBursts::7             5529                       # Per bank write bursts
system.mem_ctrls1.perBankWrBursts::8             5540                       # Per bank write bursts
system.mem_ctrls1.perBankWrBursts::9             5711                       # Per bank write bursts
system.mem_ctrls1.perBankWrBursts::10            5841                       # Per bank write bursts
system.mem_ctrls1.perBankWrBursts::11            6293                       # Per bank write bursts
system.mem_ctrls1.perBankWrBursts::12            5963                       # Per bank write bursts
system.mem_ctrls1.perBankWrBursts::13            5692                       # Per bank write bursts
system.mem_ctrls1.perBankWrBursts::14            5511                       # Per bank write bursts
system.mem_ctrls1.perBankWrBursts::15            5710                       # Per bank write bursts
system.mem_ctrls1.numRdRetry                        0                       # Number of times read queue was full causing retry
system.mem_ctrls1.numWrRetry                        0                       # Number of times write queue was full causing retry
system.mem_ctrls1.totGap                 1154817478881                       # Total gap between requests
system.mem_ctrls1.readPktSize::0                    0                       # Read request sizes (log2)
system.mem_ctrls1.readPktSize::1                    0                       # Read request sizes (log2)
system.mem_ctrls1.readPktSize::2                    0                       # Read request sizes (log2)
system.mem_ctrls1.readPktSize::3                    0                       # Read request sizes (log2)
system.mem_ctrls1.readPktSize::4                    0                       # Read request sizes (log2)
system.mem_ctrls1.readPktSize::5                    0                       # Read request sizes (log2)
system.mem_ctrls1.readPktSize::6               149582                       # Read request sizes (log2)
system.mem_ctrls1.writePktSize::0                   0                       # Write request sizes (log2)
system.mem_ctrls1.writePktSize::1                   0                       # Write request sizes (log2)
system.mem_ctrls1.writePktSize::2                   0                       # Write request sizes (log2)
system.mem_ctrls1.writePktSize::3                   0                       # Write request sizes (log2)
system.mem_ctrls1.writePktSize::4                   0                       # Write request sizes (log2)
system.mem_ctrls1.writePktSize::5                   0                       # Write request sizes (log2)
system.mem_ctrls1.writePktSize::6               93065                       # Write request sizes (log2)
system.mem_ctrls1.rdQLenPdf::0                 147782                       # What read queue length does an incoming req see
system.mem_ctrls1.rdQLenPdf::1                   1682                       # What read queue length does an incoming req see
system.mem_ctrls1.rdQLenPdf::2                     39                       # What read queue length does an incoming req see
system.mem_ctrls1.rdQLenPdf::3                      0                       # What read queue length does an incoming req see
system.mem_ctrls1.rdQLenPdf::4                      0                       # What read queue length does an incoming req see
system.mem_ctrls1.rdQLenPdf::5                      0                       # What read queue length does an incoming req see
system.mem_ctrls1.rdQLenPdf::6                      0                       # What read queue length does an incoming req see
system.mem_ctrls1.rdQLenPdf::7                      0                       # What read queue length does an incoming req see
system.mem_ctrls1.rdQLenPdf::8                      0                       # What read queue length does an incoming req see
system.mem_ctrls1.rdQLenPdf::9                      0                       # What read queue length does an incoming req see
system.mem_ctrls1.rdQLenPdf::10                     0                       # What read queue length does an incoming req see
system.mem_ctrls1.rdQLenPdf::11                     0                       # What read queue length does an incoming req see
system.mem_ctrls1.rdQLenPdf::12                     0                       # What read queue length does an incoming req see
system.mem_ctrls1.rdQLenPdf::13                     0                       # What read queue length does an incoming req see
system.mem_ctrls1.rdQLenPdf::14                     0                       # What read queue length does an incoming req see
system.mem_ctrls1.rdQLenPdf::15                     0                       # What read queue length does an incoming req see
system.mem_ctrls1.rdQLenPdf::16                     0                       # What read queue length does an incoming req see
system.mem_ctrls1.rdQLenPdf::17                     0                       # What read queue length does an incoming req see
system.mem_ctrls1.rdQLenPdf::18                     0                       # What read queue length does an incoming req see
system.mem_ctrls1.rdQLenPdf::19                     0                       # What read queue length does an incoming req see
system.mem_ctrls1.rdQLenPdf::20                     0                       # What read queue length does an incoming req see
system.mem_ctrls1.rdQLenPdf::21                     0                       # What read queue length does an incoming req see
system.mem_ctrls1.rdQLenPdf::22                     0                       # What read queue length does an incoming req see
system.mem_ctrls1.rdQLenPdf::23                     0                       # What read queue length does an incoming req see
system.mem_ctrls1.rdQLenPdf::24                     0                       # What read queue length does an incoming req see
system.mem_ctrls1.rdQLenPdf::25                     0                       # What read queue length does an incoming req see
system.mem_ctrls1.rdQLenPdf::26                     0                       # What read queue length does an incoming req see
system.mem_ctrls1.rdQLenPdf::27                     0                       # What read queue length does an incoming req see
system.mem_ctrls1.rdQLenPdf::28                     0                       # What read queue length does an incoming req see
system.mem_ctrls1.rdQLenPdf::29                     0                       # What read queue length does an incoming req see
system.mem_ctrls1.rdQLenPdf::30                     0                       # What read queue length does an incoming req see
system.mem_ctrls1.rdQLenPdf::31                     0                       # What read queue length does an incoming req see
system.mem_ctrls1.wrQLenPdf::0                      2                       # What write queue length does an incoming req see
system.mem_ctrls1.wrQLenPdf::1                      2                       # What write queue length does an incoming req see
system.mem_ctrls1.wrQLenPdf::2                      2                       # What write queue length does an incoming req see
system.mem_ctrls1.wrQLenPdf::3                      2                       # What write queue length does an incoming req see
system.mem_ctrls1.wrQLenPdf::4                      2                       # What write queue length does an incoming req see
system.mem_ctrls1.wrQLenPdf::5                      2                       # What write queue length does an incoming req see
system.mem_ctrls1.wrQLenPdf::6                      2                       # What write queue length does an incoming req see
system.mem_ctrls1.wrQLenPdf::7                      2                       # What write queue length does an incoming req see
system.mem_ctrls1.wrQLenPdf::8                      2                       # What write queue length does an incoming req see
system.mem_ctrls1.wrQLenPdf::9                      2                       # What write queue length does an incoming req see
system.mem_ctrls1.wrQLenPdf::10                     2                       # What write queue length does an incoming req see
system.mem_ctrls1.wrQLenPdf::11                     2                       # What write queue length does an incoming req see
system.mem_ctrls1.wrQLenPdf::12                     2                       # What write queue length does an incoming req see
system.mem_ctrls1.wrQLenPdf::13                     2                       # What write queue length does an incoming req see
system.mem_ctrls1.wrQLenPdf::14                     2                       # What write queue length does an incoming req see
system.mem_ctrls1.wrQLenPdf::15                  4430                       # What write queue length does an incoming req see
system.mem_ctrls1.wrQLenPdf::16                  4491                       # What write queue length does an incoming req see
system.mem_ctrls1.wrQLenPdf::17                  5202                       # What write queue length does an incoming req see
system.mem_ctrls1.wrQLenPdf::18                  5252                       # What write queue length does an incoming req see
system.mem_ctrls1.wrQLenPdf::19                  5256                       # What write queue length does an incoming req see
system.mem_ctrls1.wrQLenPdf::20                  5252                       # What write queue length does an incoming req see
system.mem_ctrls1.wrQLenPdf::21                  5247                       # What write queue length does an incoming req see
system.mem_ctrls1.wrQLenPdf::22                  5273                       # What write queue length does an incoming req see
system.mem_ctrls1.wrQLenPdf::23                  5271                       # What write queue length does an incoming req see
system.mem_ctrls1.wrQLenPdf::24                  5266                       # What write queue length does an incoming req see
system.mem_ctrls1.wrQLenPdf::25                  5261                       # What write queue length does an incoming req see
system.mem_ctrls1.wrQLenPdf::26                  5265                       # What write queue length does an incoming req see
system.mem_ctrls1.wrQLenPdf::27                  5247                       # What write queue length does an incoming req see
system.mem_ctrls1.wrQLenPdf::28                  5245                       # What write queue length does an incoming req see
system.mem_ctrls1.wrQLenPdf::29                  5238                       # What write queue length does an incoming req see
system.mem_ctrls1.wrQLenPdf::30                  5249                       # What write queue length does an incoming req see
system.mem_ctrls1.wrQLenPdf::31                  5232                       # What write queue length does an incoming req see
system.mem_ctrls1.wrQLenPdf::32                  5230                       # What write queue length does an incoming req see
system.mem_ctrls1.wrQLenPdf::33                   100                       # What write queue length does an incoming req see
system.mem_ctrls1.wrQLenPdf::34                    18                       # What write queue length does an incoming req see
system.mem_ctrls1.wrQLenPdf::35                     5                       # What write queue length does an incoming req see
system.mem_ctrls1.wrQLenPdf::36                     3                       # What write queue length does an incoming req see
system.mem_ctrls1.wrQLenPdf::37                     1                       # What write queue length does an incoming req see
system.mem_ctrls1.wrQLenPdf::38                     1                       # What write queue length does an incoming req see
system.mem_ctrls1.wrQLenPdf::39                     0                       # What write queue length does an incoming req see
system.mem_ctrls1.wrQLenPdf::40                     0                       # What write queue length does an incoming req see
system.mem_ctrls1.wrQLenPdf::41                     0                       # What write queue length does an incoming req see
system.mem_ctrls1.wrQLenPdf::42                     0                       # What write queue length does an incoming req see
system.mem_ctrls1.wrQLenPdf::43                     0                       # What write queue length does an incoming req see
system.mem_ctrls1.wrQLenPdf::44                     0                       # What write queue length does an incoming req see
system.mem_ctrls1.wrQLenPdf::45                     0                       # What write queue length does an incoming req see
system.mem_ctrls1.wrQLenPdf::46                     0                       # What write queue length does an incoming req see
system.mem_ctrls1.wrQLenPdf::47                     0                       # What write queue length does an incoming req see
system.mem_ctrls1.wrQLenPdf::48                     0                       # What write queue length does an incoming req see
system.mem_ctrls1.wrQLenPdf::49                     0                       # What write queue length does an incoming req see
system.mem_ctrls1.wrQLenPdf::50                     0                       # What write queue length does an incoming req see
system.mem_ctrls1.wrQLenPdf::51                     0                       # What write queue length does an incoming req see
system.mem_ctrls1.wrQLenPdf::52                     0                       # What write queue length does an incoming req see
system.mem_ctrls1.wrQLenPdf::53                     0                       # What write queue length does an incoming req see
system.mem_ctrls1.wrQLenPdf::54                     0                       # What write queue length does an incoming req see
system.mem_ctrls1.wrQLenPdf::55                     0                       # What write queue length does an incoming req see
system.mem_ctrls1.wrQLenPdf::56                     0                       # What write queue length does an incoming req see
system.mem_ctrls1.wrQLenPdf::57                     0                       # What write queue length does an incoming req see
system.mem_ctrls1.wrQLenPdf::58                     0                       # What write queue length does an incoming req see
system.mem_ctrls1.wrQLenPdf::59                     0                       # What write queue length does an incoming req see
system.mem_ctrls1.wrQLenPdf::60                     0                       # What write queue length does an incoming req see
system.mem_ctrls1.wrQLenPdf::61                     0                       # What write queue length does an incoming req see
system.mem_ctrls1.wrQLenPdf::62                     0                       # What write queue length does an incoming req see
system.mem_ctrls1.wrQLenPdf::63                     0                       # What write queue length does an incoming req see
system.mem_ctrls1.bytesPerActivate::samples       213674                       # Bytes accessed per row activation
system.mem_ctrls1.bytesPerActivate::mean    72.646293                       # Bytes accessed per row activation
system.mem_ctrls1.bytesPerActivate::gmean    68.215084                       # Bytes accessed per row activation
system.mem_ctrls1.bytesPerActivate::stdev    52.788005                       # Bytes accessed per row activation
system.mem_ctrls1.bytesPerActivate::0-127       198720     93.00%     93.00% # Bytes accessed per row activation
system.mem_ctrls1.bytesPerActivate::128-255        12877      6.03%     99.03% # Bytes accessed per row activation
system.mem_ctrls1.bytesPerActivate::256-383          820      0.38%     99.41% # Bytes accessed per row activation
system.mem_ctrls1.bytesPerActivate::384-511          335      0.16%     99.57% # Bytes accessed per row activation
system.mem_ctrls1.bytesPerActivate::512-639          244      0.11%     99.68% # Bytes accessed per row activation
system.mem_ctrls1.bytesPerActivate::640-767          250      0.12%     99.80% # Bytes accessed per row activation
system.mem_ctrls1.bytesPerActivate::768-895          166      0.08%     99.88% # Bytes accessed per row activation
system.mem_ctrls1.bytesPerActivate::896-1023           86      0.04%     99.92% # Bytes accessed per row activation
system.mem_ctrls1.bytesPerActivate::1024-1151          176      0.08%    100.00% # Bytes accessed per row activation
system.mem_ctrls1.bytesPerActivate::total       213674                       # Bytes accessed per row activation
system.mem_ctrls1.rdPerTurnAround::samples         5231                       # Reads before turning the bus around for writes
system.mem_ctrls1.rdPerTurnAround::mean     28.580195                       # Reads before turning the bus around for writes
system.mem_ctrls1.rdPerTurnAround::stdev   359.404381                       # Reads before turning the bus around for writes
system.mem_ctrls1.rdPerTurnAround::0-1023         5230     99.98%     99.98% # Reads before turning the bus around for writes
system.mem_ctrls1.rdPerTurnAround::25600-26623            1      0.02%    100.00% # Reads before turning the bus around for writes
system.mem_ctrls1.rdPerTurnAround::total         5231                       # Reads before turning the bus around for writes
system.mem_ctrls1.wrPerTurnAround::samples         5231                       # Writes before turning the bus around for reads
system.mem_ctrls1.wrPerTurnAround::mean     17.785892                       # Writes before turning the bus around for reads
system.mem_ctrls1.wrPerTurnAround::gmean    17.766672                       # Writes before turning the bus around for reads
system.mem_ctrls1.wrPerTurnAround::stdev     0.813392                       # Writes before turning the bus around for reads
system.mem_ctrls1.wrPerTurnAround::15               1      0.02%      0.02% # Writes before turning the bus around for reads
system.mem_ctrls1.wrPerTurnAround::16             757     14.47%     14.49% # Writes before turning the bus around for reads
system.mem_ctrls1.wrPerTurnAround::17              41      0.78%     15.27% # Writes before turning the bus around for reads
system.mem_ctrls1.wrPerTurnAround::18            4059     77.60%     92.87% # Writes before turning the bus around for reads
system.mem_ctrls1.wrPerTurnAround::19             325      6.21%     99.08% # Writes before turning the bus around for reads
system.mem_ctrls1.wrPerTurnAround::20              38      0.73%     99.81% # Writes before turning the bus around for reads
system.mem_ctrls1.wrPerTurnAround::21               5      0.10%     99.90% # Writes before turning the bus around for reads
system.mem_ctrls1.wrPerTurnAround::22               4      0.08%     99.98% # Writes before turning the bus around for reads
system.mem_ctrls1.wrPerTurnAround::24               1      0.02%    100.00% # Writes before turning the bus around for reads
system.mem_ctrls1.wrPerTurnAround::total         5231                       # Writes before turning the bus around for reads
system.mem_ctrls1.totQLat                 28225650537                       # Total ticks spent queuing
system.mem_ctrls1.totMemAccLat            31028831787                       # Total ticks spent from burst creation until serviced by the DRAM
system.mem_ctrls1.totBusLat                 747515000                       # Total ticks spent in databus transfers
system.mem_ctrls1.avgQLat                   188796.55                       # Average queueing delay per DRAM burst
system.mem_ctrls1.avgBusLat                   5000.00                       # Average bus latency per DRAM burst
system.mem_ctrls1.avgMemAccLat              207546.55                       # Average memory access latency per DRAM burst
system.mem_ctrls1.avgRdBW                        8.29                       # Average DRAM read bandwidth in MiByte/s
system.mem_ctrls1.avgWrBW                        5.16                       # Average achieved write bandwidth in MiByte/s
system.mem_ctrls1.avgRdBWSys                     8.29                       # Average system read bandwidth in MiByte/s
system.mem_ctrls1.avgWrBWSys                     5.16                       # Average system write bandwidth in MiByte/s
system.mem_ctrls1.peakBW                     12800.00                       # Theoretical peak bandwidth in MiByte/s
system.mem_ctrls1.busUtil                        0.11                       # Data bus utilization in percentage
system.mem_ctrls1.busUtilRead                    0.06                       # Data bus utilization in percentage for reads
system.mem_ctrls1.busUtilWrite                   0.04                       # Data bus utilization in percentage for writes
system.mem_ctrls1.avgRdQLen                      1.00                       # Average read queue length when enqueuing
system.mem_ctrls1.avgWrQLen                     20.89                       # Average write queue length when enqueuing
system.mem_ctrls1.readRowHits                   19850                       # Number of row buffer hits during reads
system.mem_ctrls1.writeRowHits                   9017                       # Number of row buffer hits during writes
system.mem_ctrls1.readRowHitRate                13.28                       # Row buffer hit rate for reads
system.mem_ctrls1.writeRowHitRate                9.69                       # Row buffer hit rate for writes
system.mem_ctrls1.avgGap                   4759248.95                       # Average gap between requests
system.mem_ctrls1.pageHitRate                   11.90                       # Row buffer hit rate, read and write combined
system.mem_ctrls1_0.actEnergy               767514300                       # Energy for activate commands per rank (pJ)
system.mem_ctrls1_0.preEnergy               407943525                       # Energy for precharge commands per rank (pJ)
system.mem_ctrls1_0.readEnergy              535442880                       # Energy for read commands per rank (pJ)
system.mem_ctrls1_0.writeEnergy             244175940                       # Energy for write commands per rank (pJ)
system.mem_ctrls1_0.refreshEnergy        59609631120.000015                       # Energy for refresh commands per rank (pJ)
system.mem_ctrls1_0.actBackEnergy         20633142720                       # Energy for active background per rank (pJ)
system.mem_ctrls1_0.preBackEnergy          3489877920                       # Energy for precharge background per rank (pJ)
system.mem_ctrls1_0.actPowerDownEnergy   117995237730                       # Energy for active power-down per rank (pJ)
system.mem_ctrls1_0.prePowerDownEnergy    99057039840                       # Energy for precharge power-down per rank (pJ)
system.mem_ctrls1_0.selfRefreshEnergy    154130250855                       # Energy for self refresh per rank (pJ)
system.mem_ctrls1_0.totalEnergy          456898971990                       # Total energy per rank (pJ)
system.mem_ctrls1_0.averagePower           395.645576                       # Core power per rank (mW)
system.mem_ctrls1_0.totalIdleTime        1100414134910                       # Total Idle time Per DRAM Rank
system.mem_ctrls1_0.memoryStateTime::IDLE   6996335501                       # Time in different power states
system.mem_ctrls1_0.memoryStateTime::REF  25370572000                       # Time in different power states
system.mem_ctrls1_0.memoryStateTime::SREF 583696036101                       # Time in different power states
system.mem_ctrls1_0.memoryStateTime::PRE_PDN 257961154260                       # Time in different power states
system.mem_ctrls1_0.memoryStateTime::ACT  22033231969                       # Time in different power states
system.mem_ctrls1_0.memoryStateTime::ACT_PDN 258761511020                       # Time in different power states
system.mem_ctrls1_1.actEnergy               758118060                       # Energy for activate commands per rank (pJ)
system.mem_ctrls1_1.preEnergy               402949305                       # Energy for precharge commands per rank (pJ)
system.mem_ctrls1_1.readEnergy              532008540                       # Energy for read commands per rank (pJ)
system.mem_ctrls1_1.writeEnergy             241482420                       # Energy for write commands per rank (pJ)
system.mem_ctrls1_1.refreshEnergy        59507600880.000015                       # Energy for refresh commands per rank (pJ)
system.mem_ctrls1_1.actBackEnergy         20597577000                       # Energy for active background per rank (pJ)
system.mem_ctrls1_1.preBackEnergy          3497059200                       # Energy for precharge background per rank (pJ)
system.mem_ctrls1_1.actPowerDownEnergy   117144295560                       # Energy for active power-down per rank (pJ)
system.mem_ctrls1_1.prePowerDownEnergy    99131213280                       # Energy for precharge power-down per rank (pJ)
system.mem_ctrls1_1.selfRefreshEnergy    154579615785                       # Energy for self refresh per rank (pJ)
system.mem_ctrls1_1.totalEnergy          456419584500                       # Total energy per rank (pJ)
system.mem_ctrls1_1.averagePower           395.230457                       # Core power per rank (mW)
system.mem_ctrls1_1.totalIdleTime        1100469875932                       # Total Idle time Per DRAM Rank
system.mem_ctrls1_1.memoryStateTime::IDLE   7018389287                       # Time in different power states
system.mem_ctrls1_1.memoryStateTime::REF  25327850000                       # Time in different power states
system.mem_ctrls1_1.memoryStateTime::SREF 585430818851                       # Time in different power states
system.mem_ctrls1_1.memoryStateTime::PRE_PDN 258154394013                       # Time in different power states
system.mem_ctrls1_1.memoryStateTime::ACT  21991727530                       # Time in different power states
system.mem_ctrls1_1.memoryStateTime::ACT_PDN 256895661170                       # Time in different power states
system.pwrStateResidencyTicks::UNDEFINED 18808160231781                       # Cumulative time (in ticks) in various power states
system.cpu.branchPred.lookups                       3                       # Number of BP lookups
system.cpu.branchPred.condPredicted                 1                       # Number of conditional branches predicted
system.cpu.branchPred.condIncorrect                 1                       # Number of conditional branches incorrect
system.cpu.branchPred.BTBLookups                    2                       # Number of BTB lookups
system.cpu.branchPred.BTBHits                       0                       # Number of BTB hits
system.cpu.branchPred.BTBCorrect                    0                       # Number of correct BTB predictions (this stat may not work properly.
system.cpu.branchPred.BTBHitPct              0.000000                       # BTB Hit Percentage
system.cpu.branchPred.usedRAS                       0                       # Number of times the RAS was used to get a target.
system.cpu.branchPred.RASInCorrect                  0                       # Number of incorrect RAS predictions.
system.cpu.branchPred.indirectLookups               0                       # Number of indirect predictor lookups.
system.cpu.branchPred.indirectHits                  0                       # Number of indirect target hits.
system.cpu.branchPred.indirectMisses                0                       # Number of indirect misses.
system.cpu.branchPredindirectMispredicted            0                       # Number of mispredicted indirect branches.
system.cpu_voltage_domain.voltage                   1                       # Voltage in Volts
system.cpu_clk_domain.clock                       333                       # Clock period in ticks
system.cpu.dtb.fetch_hits                           0                       # ITB hits
system.cpu.dtb.fetch_misses                         0                       # ITB misses
system.cpu.dtb.fetch_acv                            0                       # ITB acv
system.cpu.dtb.fetch_accesses                       0                       # ITB accesses
system.cpu.dtb.read_hits                            3                       # DTB read hits
system.cpu.dtb.read_misses                          0                       # DTB read misses
system.cpu.dtb.read_acv                             0                       # DTB read access violations
system.cpu.dtb.read_accesses                        3                       # DTB read accesses
system.cpu.dtb.write_hits                          11                       # DTB write hits
system.cpu.dtb.write_misses                         0                       # DTB write misses
system.cpu.dtb.write_acv                            0                       # DTB write access violations
system.cpu.dtb.write_accesses                      11                       # DTB write accesses
system.cpu.dtb.data_hits                           14                       # DTB hits
system.cpu.dtb.data_misses                          0                       # DTB misses
system.cpu.dtb.data_acv                             0                       # DTB access violations
system.cpu.dtb.data_accesses                       14                       # DTB accesses
system.cpu.itb.fetch_hits                           6                       # ITB hits
system.cpu.itb.fetch_misses                         0                       # ITB misses
system.cpu.itb.fetch_acv                            0                       # ITB acv
system.cpu.itb.fetch_accesses                       6                       # ITB accesses
system.cpu.itb.read_hits                            0                       # DTB read hits
system.cpu.itb.read_misses                          0                       # DTB read misses
system.cpu.itb.read_acv                             0                       # DTB read access violations
system.cpu.itb.read_accesses                        0                       # DTB read accesses
system.cpu.itb.write_hits                           0                       # DTB write hits
system.cpu.itb.write_misses                         0                       # DTB write misses
system.cpu.itb.write_acv                            0                       # DTB write access violations
system.cpu.itb.write_accesses                       0                       # DTB write accesses
system.cpu.itb.data_hits                            0                       # DTB hits
system.cpu.itb.data_misses                          0                       # DTB misses
system.cpu.itb.data_acv                             0                       # DTB access violations
system.cpu.itb.data_accesses                        0                       # DTB accesses
system.cpu.workload.num_syscalls                    0                       # Number of system calls
system.cpu.pwrStateResidencyTicks::ON    1154818840851                       # Cumulative time (in ticks) in various power states
system.cpu.numCycles                             1491                       # number of cpu cycles simulated
system.cpu.numWorkItemsStarted                      0                       # number of work items this cpu started
system.cpu.numWorkItemsCompleted                    0                       # number of work items this cpu completed
system.cpu.fetch.icacheStallCycles                 63                       # Number of cycles fetch is stalled on an Icache miss
system.cpu.fetch.Insts                             31                       # Number of instructions fetch has processed
system.cpu.fetch.Branches                           3                       # Number of branches that fetch encountered
system.cpu.fetch.Cycles                             5                       # Number of cycles fetch has run and was not squashing or blocked
system.cpu.fetch.SquashCycles                       5                       # Number of cycles fetch has spent squashing
system.cpu.fetch.PendingDrainCycles                 8                       # Number of cycles fetch has spent waiting on pipes to drain
system.cpu.fetch.CacheLines                         6                       # Number of cache lines fetched
system.cpu.fetch.IcacheSquashes                     3                       # Number of outstanding Icache misses that were squashed
system.cpu.fetch.rateDist::samples                 78                       # Number of instructions fetched each cycle (Total)
system.cpu.fetch.rateDist::mean              0.397436                       # Number of instructions fetched each cycle (Total)
system.cpu.fetch.rateDist::stdev             1.646245                       # Number of instructions fetched each cycle (Total)
system.cpu.fetch.rateDist::underflows               0      0.00%      0.00% # Number of instructions fetched each cycle (Total)
system.cpu.fetch.rateDist::0                       73     93.59%     93.59% # Number of instructions fetched each cycle (Total)
system.cpu.fetch.rateDist::1                        0      0.00%     93.59% # Number of instructions fetched each cycle (Total)
system.cpu.fetch.rateDist::2                        1      1.28%     94.87% # Number of instructions fetched each cycle (Total)
system.cpu.fetch.rateDist::3                        0      0.00%     94.87% # Number of instructions fetched each cycle (Total)
system.cpu.fetch.rateDist::4                        0      0.00%     94.87% # Number of instructions fetched each cycle (Total)
system.cpu.fetch.rateDist::5                        1      1.28%     96.15% # Number of instructions fetched each cycle (Total)
system.cpu.fetch.rateDist::6                        0      0.00%     96.15% # Number of instructions fetched each cycle (Total)
system.cpu.fetch.rateDist::7                        0      0.00%     96.15% # Number of instructions fetched each cycle (Total)
system.cpu.fetch.rateDist::8                        3      3.85%    100.00% # Number of instructions fetched each cycle (Total)
[...]
system.switch_cpus_1.iq.int_inst_queue_writes    350698150                       # Number of integer instruction queue writes
system.switch_cpus_1.iq.int_inst_queue_wakeup_accesses    241025765                       # Number of integer instruction queue wakeup accesses
system.switch_cpus_1.iq.fp_inst_queue_reads      4184274                       # Number of floating instruction queue reads
system.switch_cpus_1.iq.fp_inst_queue_writes      2881922                       # Number of floating instruction queue writes
system.switch_cpus_1.iq.fp_inst_queue_wakeup_accesses      1992218                       # Number of floating instruction queue wakeup accesses
system.switch_cpus_1.iq.int_alu_accesses    258542267                       # Number of integer alu accesses
system.switch_cpus_1.iq.fp_alu_accesses       2118448                       # Number of floating point alu accesses
system.switch_cpus_1.iew.lsq.thread0.forwLoads      2613661                       # Number of loads that had data forwarded from stores
system.switch_cpus_1.iew.lsq.thread0.invAddrLoads            0                       # Number of loads ignored due to an invalid address
system.switch_cpus_1.iew.lsq.thread0.squashedLoads     17975554                       # Number of loads squashed
system.switch_cpus_1.iew.lsq.thread0.ignoredResponses        30167                       # Number of memory responses ignored because the instruction is squashed
system.switch_cpus_1.iew.lsq.thread0.memOrderViolation        36478                       # Number of memory ordering violations
system.switch_cpus_1.iew.lsq.thread0.squashedStores      5646651                       # Number of stores squashed
system.switch_cpus_1.iew.lsq.thread0.invAddrSwpfs            0                       # Number of software prefetches ignored due to an invalid address
system.switch_cpus_1.iew.lsq.thread0.blockedLoads            0                       # Number of blocked loads due to partial load-store forwarding
system.switch_cpus_1.iew.lsq.thread0.rescheduledLoads         9701                       # Number of loads that were rescheduled
system.switch_cpus_1.iew.lsq.thread0.cacheBlocked      1535649                       # Number of times an access to memory failed due to the cache being blocked
system.switch_cpus_1.iew.iewIdleCycles              0                       # Number of cycles IEW is idle
system.switch_cpus_1.iew.iewSquashCycles      3789581                       # Number of cycles IEW is squashing
system.switch_cpus_1.iew.iewBlockCycles      13258344                       # Number of cycles IEW is blocking
system.switch_cpus_1.iew.iewUnblockCycles      3472355                       # Number of cycles IEW is unblocking
system.switch_cpus_1.iew.iewDispatchedInsts    283625815                       # Number of instructions dispatched to IQ
system.switch_cpus_1.iew.iewDispSquashedInsts      1399789                       # Number of squashed instructions skipped by dispatch
system.switch_cpus_1.iew.iewDispLoadInsts     62097308                       # Number of dispatched load instructions
system.switch_cpus_1.iew.iewDispStoreInsts     27946496                       # Number of dispatched store instructions
system.switch_cpus_1.iew.iewDispNonSpecInsts          176                       # Number of dispatched non-speculative instructions
system.switch_cpus_1.iew.iewIQFullEvents        26799                       # Number of times the IQ has become full, causing a stall
system.switch_cpus_1.iew.iewLSQFullEvents      3398015                       # Number of times the LSQ has become full, causing a stall
system.switch_cpus_1.iew.memOrderViolationEvents        36478                       # Number of memory order violations
system.switch_cpus_1.iew.predictedTakenIncorrect      2206896                       # Number of branches that were predicted taken incorrectly
system.switch_cpus_1.iew.predictedNotTakenIncorrect      1998673                       # Number of branches that were predicted not taken incorrectly
system.switch_cpus_1.iew.branchMispredicts      4205569                       # Number of branch mispredicts detected at execute
system.switch_cpus_1.iew.iewExecutedInsts    249126288                       # Number of executed instructions
system.switch_cpus_1.iew.iewExecLoadInsts     57906985                       # Number of load instructions executed
system.switch_cpus_1.iew.iewExecSquashedInsts      6202167                       # Number of squashed instructions skipped in execute
system.switch_cpus_1.iew.exec_swp                   0                       # number of swp insts executed
system.switch_cpus_1.iew.exec_nop             6852617                       # number of nop insts executed
system.switch_cpus_1.iew.exec_refs           83129091                       # number of memory reference insts executed
system.switch_cpus_1.iew.exec_branches       36347609                       # Number of branches executed
system.switch_cpus_1.iew.exec_stores         25222106                       # Number of stores executed
system.switch_cpus_1.iew.exec_rate           1.283537                       # Inst execution rate
system.switch_cpus_1.iew.wb_sent            244642192                       # cumulative count of insts sent to commit
system.switch_cpus_1.iew.wb_count           243017983                       # cumulative count of insts written-back
system.switch_cpus_1.iew.wb_producers       136941821                       # num instructions producing a value
system.switch_cpus_1.iew.wb_consumers       173271332                       # num instructions consuming a value
system.switch_cpus_1.iew.wb_rate             1.252066                       # insts written-back per cycle
system.switch_cpus_1.iew.wb_fanout           0.790332                       # average fanout of values written-back
system.switch_cpus_1.commit.commitSquashedInsts     77306055                       # The number of squashed insts skipped by commit
system.switch_cpus_1.commit.commitNonSpecStalls          176                       # The number of times commit has been forced to stall to communicate backwards
system.switch_cpus_1.commit.branchMispredicts      3695025                       # The number of times a branch was mispredicted
system.switch_cpus_1.commit.committed_per_cycle::samples    168760052                       # Number of insts commited each cycle
system.switch_cpus_1.commit.committed_per_cycle::mean     1.216835                       # Number of insts commited each cycle
system.switch_cpus_1.commit.committed_per_cycle::stdev     2.305922                       # Number of insts commited each cycle
system.switch_cpus_1.commit.committed_per_cycle::underflows            0      0.00%      0.00% # Number of insts commited each cycle
system.switch_cpus_1.commit.committed_per_cycle::0    107566416     63.74%     63.74% # Number of insts commited each cycle
system.switch_cpus_1.commit.committed_per_cycle::1     25355998     15.02%     78.76% # Number of insts commited each cycle
system.switch_cpus_1.commit.committed_per_cycle::2      8744097      5.18%     83.95% # Number of insts commited each cycle
system.switch_cpus_1.commit.committed_per_cycle::3      5225011      3.10%     87.04% # Number of insts commited each cycle
system.switch_cpus_1.commit.committed_per_cycle::4      3420421      2.03%     89.07% # Number of insts commited each cycle
system.switch_cpus_1.commit.committed_per_cycle::5      2721593      1.61%     90.68% # Number of insts commited each cycle
system.switch_cpus_1.commit.committed_per_cycle::6      2311045      1.37%     92.05% # Number of insts commited each cycle
system.switch_cpus_1.commit.committed_per_cycle::7      1645805      0.98%     93.03% # Number of insts commited each cycle
system.switch_cpus_1.commit.committed_per_cycle::8     11769666      6.97%    100.00% # Number of insts commited each cycle
system.switch_cpus_1.commit.committed_per_cycle::overflows            0      0.00%    100.00% # Number of insts commited each cycle
system.switch_cpus_1.commit.committed_per_cycle::min_value            0                       # Number of insts commited each cycle
system.switch_cpus_1.commit.committed_per_cycle::max_value            8                       # Number of insts commited each cycle
system.switch_cpus_1.commit.committed_per_cycle::total    168760052                       # Number of insts commited each cycle
system.switch_cpus_1.commit.committedInsts    205353107                       # Number of instructions committed
system.switch_cpus_1.commit.committedOps    205353107                       # Number of ops (including micro ops) committed
system.switch_cpus_1.commit.swp_count               0                       # Number of s/w prefetches committed
system.switch_cpus_1.commit.refs             66421579                       # Number of memory references committed
system.switch_cpus_1.commit.loads            44121734                       # Number of loads committed
system.switch_cpus_1.commit.membars                88                       # Number of memory barriers committed
system.switch_cpus_1.commit.branches         30359423                       # Number of branches committed
system.switch_cpus_1.commit.fp_insts          1786208                       # Number of committed floating point instructions.
system.switch_cpus_1.commit.int_insts       197426184                       # Number of committed integer instructions.
system.switch_cpus_1.commit.function_calls      1752736                       # Number of function calls committed.
system.switch_cpus_1.commit.op_class_0::No_OpClass      5447375      2.65%      2.65% # Class of committed instruction
system.switch_cpus_1.commit.op_class_0::IntAlu    132113930     64.34%     66.99% # Class of committed instruction
system.switch_cpus_1.commit.op_class_0::IntMult        79596      0.04%     67.03% # Class of committed instruction
system.switch_cpus_1.commit.op_class_0::IntDiv            0      0.00%     67.03% # Class of committed instruction
system.switch_cpus_1.commit.op_class_0::FloatAdd       635244      0.31%     67.34% # Class of committed instruction
system.switch_cpus_1.commit.op_class_0::FloatCmp       335099      0.16%     67.50% # Class of committed instruction
system.switch_cpus_1.commit.op_class_0::FloatCvt       272825      0.13%     67.63% # Class of committed instruction
system.switch_cpus_1.commit.op_class_0::FloatMult            0      0.00%     67.63% # Class of committed instruction
system.switch_cpus_1.commit.op_class_0::FloatMultAcc            0      0.00%     67.63% # Class of committed instruction
system.switch_cpus_1.commit.op_class_0::FloatDiv        47371      0.02%     67.65% # Class of committed instruction
system.switch_cpus_1.commit.op_class_0::FloatMisc            0      0.00%     67.65% # Class of committed instruction
system.switch_cpus_1.commit.op_class_0::FloatSqrt            0      0.00%     67.65% # Class of committed instruction
system.switch_cpus_1.commit.op_class_0::SimdAdd            0      0.00%     67.65% # Class of committed instruction
system.switch_cpus_1.commit.op_class_0::SimdAddAcc            0      0.00%     67.65% # Class of committed instruction
system.switch_cpus_1.commit.op_class_0::SimdAlu            0      0.00%     67.65% # Class of committed instruction
system.switch_cpus_1.commit.op_class_0::SimdCmp            0      0.00%     67.65% # Class of committed instruction
system.switch_cpus_1.commit.op_class_0::SimdCvt            0      0.00%     67.65% # Class of committed instruction
system.switch_cpus_1.commit.op_class_0::SimdMisc            0      0.00%     67.65% # Class of committed instruction
system.switch_cpus_1.commit.op_class_0::SimdMult            0      0.00%     67.65% # Class of committed instruction
system.switch_cpus_1.commit.op_class_0::SimdMultAcc            0      0.00%     67.65% # Class of committed instruction
system.switch_cpus_1.commit.op_class_0::SimdShift            0      0.00%     67.65% # Class of committed instruction
system.switch_cpus_1.commit.op_class_0::SimdShiftAcc            0      0.00%     67.65% # Class of committed instruction
system.switch_cpus_1.commit.op_class_0::SimdSqrt            0      0.00%     67.65% # Class of committed instruction
system.switch_cpus_1.commit.op_class_0::SimdFloatAdd            0      0.00%     67.65% # Class of committed instruction
system.switch_cpus_1.commit.op_class_0::SimdFloatAlu            0      0.00%     67.65% # Class of committed instruction
system.switch_cpus_1.commit.op_class_0::SimdFloatCmp            0      0.00%     67.65% # Class of committed instruction
system.switch_cpus_1.commit.op_class_0::SimdFloatCvt            0      0.00%     67.65% # Class of committed instruction
system.switch_cpus_1.commit.op_class_0::SimdFloatDiv            0      0.00%     67.65% # Class of committed instruction
system.switch_cpus_1.commit.op_class_0::SimdFloatMisc            0      0.00%     67.65% # Class of committed instruction
system.switch_cpus_1.commit.op_class_0::SimdFloatMult            0      0.00%     67.65% # Class of committed instruction
system.switch_cpus_1.commit.op_class_0::SimdFloatMultAcc            0      0.00%     67.65% # Class of committed instruction
system.switch_cpus_1.commit.op_class_0::SimdFloatSqrt            0      0.00%     67.65% # Class of committed instruction
system.switch_cpus_1.commit.op_class_0::MemRead     43815278     21.34%     88.99% # Class of committed instruction
system.switch_cpus_1.commit.op_class_0::MemWrite     22110720     10.77%     99.76% # Class of committed instruction
system.switch_cpus_1.commit.op_class_0::FloatMemRead       306544      0.15%     99.91% # Class of committed instruction
system.switch_cpus_1.commit.op_class_0::FloatMemWrite       189125      0.09%    100.00% # Class of committed instruction
system.switch_cpus_1.commit.op_class_0::IprAccess            0      0.00%    100.00% # Class of committed instruction
system.switch_cpus_1.commit.op_class_0::InstPrefetch            0      0.00%    100.00% # Class of committed instruction
system.switch_cpus_1.commit.op_class_0::total    205353107                       # Class of committed instruction
system.switch_cpus_1.commit.bw_lim_events     11769666                       # number cycles where commit BW limit reached
system.switch_cpus_1.rob.rob_reads          438759061                       # The number of ROB reads
system.switch_cpus_1.rob.rob_writes         577297591                       # The number of ROB writes
system.switch_cpus_1.timesIdled               1025701                       # Number of times that the entire CPU went into an idle state and unscheduled itself
system.switch_cpus_1.idleCycles              13439558                       # Total number of cycles that the CPU has spent unscheduled due to idling
system.switch_cpus_1.committedInsts         200000006                       # Number of Instructions Simulated
system.switch_cpus_1.committedOps           200000006                       # Number of Ops (including micro ops) Simulated
system.switch_cpus_1.cpi                     0.970468                       # CPI: Cycles Per Instruction
system.switch_cpus_1.cpi_total               0.970468                       # CPI: Total CPI of All Threads
system.switch_cpus_1.ipc                     1.030431                       # IPC: Instructions Per Cycle
system.switch_cpus_1.ipc_total               1.030431                       # IPC: Total IPC of All Threads
system.switch_cpus_1.int_regfile_reads      334186816                       # number of integer regfile reads
system.switch_cpus_1.int_regfile_writes     183442774                       # number of integer regfile writes
system.switch_cpus_1.fp_regfile_reads         2123518                       # number of floating regfile reads
system.switch_cpus_1.fp_regfile_writes        1274850                       # number of floating regfile writes
system.switch_cpus_1.misc_regfile_reads         94472                       # number of misc regfile reads
system.switch_cpus_1.misc_regfile_writes        47313                       # number of misc regfile writes
system.tol3bus.snoop_filter.tot_requests      2929376                       # Total number of requests made to the snoop filter.
system.tol3bus.snoop_filter.hit_single_requests      1462650                       # Number of requests hitting in the snoop filter with a single holder of the requested data.
system.tol3bus.snoop_filter.hit_multi_requests            0                       # Number of requests hitting in the snoop filter with multiple (>1) holders of the requested data.
system.tol3bus.snoop_filter.tot_snoops            881                       # Total number of snoops made to the snoop filter.
system.tol3bus.snoop_filter.hit_single_snoops          881                       # Number of snoops hitting in the snoop filter with a single holder of the requested data.
system.tol3bus.snoop_filter.hit_multi_snoops            0                       # Number of snoops hitting in the snoop filter with multiple (>1) holders of the requested data.
system.tol3bus.pwrStateResidencyTicks::UNDEFINED 18808160231781                       # Cumulative time (in ticks) in various power states
system.tol3bus.trans_dist::ReadResp           1040912                       # Transaction distribution
system.tol3bus.trans_dist::WritebackDirty      1016047                       # Transaction distribution
system.tol3bus.trans_dist::CleanEvict          679478                       # Transaction distribution
system.tol3bus.trans_dist::ReadExReq           425814                       # Transaction distribution
system.tol3bus.trans_dist::ReadExResp          425814                       # Transaction distribution
system.tol3bus.trans_dist::ReadSharedReq      1040912                       # Transaction distribution
system.tol3bus.pkt_count_system.cpu.l2.mem_side::system.l3.cpu_side      4396102                       # Packet count per connected master and slave (bytes)
system.tol3bus.pkt_size_system.cpu.l2.mem_side::system.l3.cpu_side    147013504                       # Cumulative packet size per connected master and slave (bytes)
system.tol3bus.snoops                          232875                       # Total snoops (count)
system.tol3bus.snoopTraffic                  11883968                       # Total snoop traffic (bytes)
system.tol3bus.snoop_fanout::samples          1699601                       # Request fanout histogram
system.tol3bus.snoop_fanout::mean            0.000518                       # Request fanout histogram
system.tol3bus.snoop_fanout::stdev           0.022762                       # Request fanout histogram
system.tol3bus.snoop_fanout::underflows             0      0.00%      0.00% # Request fanout histogram
system.tol3bus.snoop_fanout::0                1698720     99.95%     99.95% # Request fanout histogram
system.tol3bus.snoop_fanout::1                    881      0.05%    100.00% # Request fanout histogram
system.tol3bus.snoop_fanout::overflows              0      0.00%    100.00% # Request fanout histogram
system.tol3bus.snoop_fanout::min_value              0                       # Request fanout histogram
system.tol3bus.snoop_fanout::max_value              1                       # Request fanout histogram
system.tol3bus.snoop_fanout::total            1699601                       # Request fanout histogram
system.tol3bus.reqLayer0.occupancy         1251992088                       # Layer occupancy (ticks)
system.tol3bus.reqLayer0.utilization              0.1                       # Layer utilization (%)
system.tol3bus.respLayer0.occupancy         976839516                       # Layer occupancy (ticks)
system.tol3bus.respLayer0.utilization             0.1                       # Layer utilization (%)

---------- End Simulation Statistics   ----------
