
---------- Begin Simulation Statistics ----------
sim_seconds                                  1.982274                       # Number of seconds simulated
sim_ticks                                1982273922819                       # Number of ticks simulated
final_tick                               75252427723521                       # Number of ticks from beginning of simulation (restored from checkpoints and never reset)
sim_freq                                 1000000000000                       # Frequency of simulated ticks
host_inst_rate                                 305656                       # Simulator instruction rate (inst/s)
host_op_rate                                   305656                       # Simulator op (including micro ops) rate (op/s)
host_tick_rate                              504911532                       # Simulator tick rate (ticks/s)
host_mem_usage                                2404652                       # Number of bytes of host memory used
host_seconds                                  3925.98                       # Real time elapsed on the host
sim_insts                                  1200000010                       # Number of instructions simulated
sim_ops                                    1200000010                       # Number of ops (including micro ops) simulated
system.voltage_domain.voltage                       1                       # Voltage in Volts
system.clk_domain.clock                          1000                       # Clock period in ticks
system.mem_ctrls0.pwrStateResidencyTicks::UNDEFINED 75252427723521                       # Cumulative time (in ticks) in various power states
system.mem_ctrls0.bytes_read::cpu.inst            128                       # Number of bytes read from this memory
system.mem_ctrls0.bytes_read::cpu.data            192                       # Number of bytes read from this memory
system.mem_ctrls0.bytes_read::switch_cpus.inst        43968                       # Number of bytes read from this memory
system.mem_ctrls0.bytes_read::switch_cpus.data    232711808                       # Number of bytes read from this memory
system.mem_ctrls0.bytes_read::switch_cpus_1.inst         3456                       # Number of bytes read from this memory
system.mem_ctrls0.bytes_read::switch_cpus_1.data     40905600                       # Number of bytes read from this memory
system.mem_ctrls0.bytes_read::total         273665152                       # Number of bytes read from this memory
system.mem_ctrls0.bytes_inst_read::cpu.inst          128                       # Number of instructions bytes read from this memory
system.mem_ctrls0.bytes_inst_read::switch_cpus.inst        43968                       # Number of instructions bytes read from this memory
system.mem_ctrls0.bytes_inst_read::switch_cpus_1.inst         3456                       # Number of instructions bytes read from this memory
system.mem_ctrls0.bytes_inst_read::total        47552                       # Number of instructions bytes read from this memory
system.mem_ctrls0.bytes_written::writebacks     86782464                       # Number of bytes written to this memory
system.mem_ctrls0.bytes_written::total       86782464                       # Number of bytes written to this memory
system.mem_ctrls0.num_reads::cpu.inst               2                       # Number of read requests responded to by this memory
system.mem_ctrls0.num_reads::cpu.data               3                       # Number of read requests responded to by this memory
system.mem_ctrls0.num_reads::switch_cpus.inst          687                       # Number of read requests responded to by this memory
system.mem_ctrls0.num_reads::switch_cpus.data      3636122                       # Number of read requests responded to by this memory
system.mem_ctrls0.num_reads::switch_cpus_1.inst           54                       # Number of read requests responded to by this memory
system.mem_ctrls0.num_reads::switch_cpus_1.data       639150                       # Number of read requests responded to by this memory
system.mem_ctrls0.num_reads::total            4276018                       # Number of read requests responded to by this memory
system.mem_ctrls0.num_writes::writebacks      1355976                       # Number of write requests responded to by this memory
system.mem_ctrls0.num_writes::total           1355976                       # Number of write requests responded to by this memory
system.mem_ctrls0.bw_read::cpu.inst                65                       # Total read bandwidth from this memory (bytes/s)
system.mem_ctrls0.bw_read::cpu.data                97                       # Total read bandwidth from this memory (bytes/s)
system.mem_ctrls0.bw_read::switch_cpus.inst        22181                       # Total read bandwidth from this memory (bytes/s)
system.mem_ctrls0.bw_read::switch_cpus.data    117396393                       # Total read bandwidth from this memory (bytes/s)
system.mem_ctrls0.bw_read::switch_cpus_1.inst         1743                       # Total read bandwidth from this memory (bytes/s)
system.mem_ctrls0.bw_read::switch_cpus_1.data     20635695                       # Total read bandwidth from this memory (bytes/s)
system.mem_ctrls0.bw_read::total            138056173                       # Total read bandwidth from this memory (bytes/s)
system.mem_ctrls0.bw_inst_read::cpu.inst           65                       # Instruction read bandwidth from this memory (bytes/s)
system.mem_ctrls0.bw_inst_read::switch_cpus.inst        22181                       # Instruction read bandwidth from this memory (bytes/s)
system.mem_ctrls0.bw_inst_read::switch_cpus_1.inst         1743                       # Instruction read bandwidth from this memory (bytes/s)
system.mem_ctrls0.bw_inst_read::total           23989                       # Instruction read bandwidth from this memory (bytes/s)
system.mem_ctrls0.bw_write::writebacks       43779249                       # Write bandwidth from this memory (bytes/s)
system.mem_ctrls0.bw_write::total            43779249                       # Write bandwidth from this memory (bytes/s)
system.mem_ctrls0.bw_total::writebacks       43779249                       # Total bandwidth to/from this memory (bytes/s)
system.mem_ctrls0.bw_total::cpu.inst               65                       # Total bandwidth to/from this memory (bytes/s)
system.mem_ctrls0.bw_total::cpu.data               97                       # Total bandwidth to/from this memory (bytes/s)
system.mem_ctrls0.bw_total::switch_cpus.inst        22181                       # Total bandwidth to/from this memory (bytes/s)
system.mem_ctrls0.bw_total::switch_cpus.data    117396393                       # Total bandwidth to/from this memory (bytes/s)
system.mem_ctrls0.bw_total::switch_cpus_1.inst         1743                       # Total bandwidth to/from this memory (bytes/s)
system.mem_ctrls0.bw_total::switch_cpus_1.data     20635695                       # Total bandwidth to/from this memory (bytes/s)
system.mem_ctrls0.bw_total::total           181835422                       # Total bandwidth to/from this memory (bytes/s)
system.mem_ctrls0.readReqs                    4276020                       # Number of read requests accepted
system.mem_ctrls0.writeReqs                   1355976                       # Number of write requests accepted
system.mem_ctrls0.readBursts                  4276020                       # Number of DRAM read bursts, including those serviced by the write queue
system.mem_ctrls0.writeBursts                 1355976                       # Number of DRAM write bursts, including those merged in the write queue
system.mem_ctrls0.bytesReadDRAM             273637632                       # Total number of bytes read from DRAM
system.mem_ctrls0.bytesReadWrQ                  27648                       # Total number of bytes read from write queue
system.mem_ctrls0.bytesWritten               86780928                       # Total number of bytes written to DRAM
system.mem_ctrls0.bytesReadSys              273665280                       # Total read bytes from the system interface side
system.mem_ctrls0.bytesWrittenSys            86782464                       # Total written bytes from the system interface side
system.mem_ctrls0.servicedByWrQ                   432                       # Number of DRAM read bursts serviced by the write queue
system.mem_ctrls0.mergedWrBursts                    0                       # Number of DRAM write bursts merged with an existing one
system.mem_ctrls0.neitherReadNorWriteReqs            0                       # Number of requests that are neither read nor write
system.mem_ctrls0.perBankRdBursts::0           272752                       # Per bank write bursts
system.mem_ctrls0.perBankRdBursts::1           268753                       # Per bank write bursts
system.mem_ctrls0.perBankRdBursts::2           265926                       # Per bank write bursts
system.mem_ctrls0.perBankRdBursts::3           266625                       # Per bank write bursts
system.mem_ctrls0.perBankRdBursts::4           267339                       # Per bank write bursts
system.mem_ctrls0.perBankRdBursts::5           269156                       # Per bank write bursts
system.mem_ctrls0.perBankRdBursts::6           268166                       # Per bank write bursts
system.mem_ctrls0.perBankRdBursts::7           269576                       # Per bank write bursts
system.mem_ctrls0.perBankRdBursts::8           270805                       # Per bank write bursts
system.mem_ctrls0.perBankRdBursts::9           267276                       # Per bank write bursts
system.mem_ctrls0.perBankRdBursts::10          262442                       # Per bank write bursts
system.mem_ctrls0.perBankRdBursts::11          260012                       # Per bank write bursts
system.mem_ctrls0.perBankRdBursts::12          261284                       # Per bank write bursts
system.mem_ctrls0.perBankRdBursts::13          266033                       # Per bank write bursts
system.mem_ctrls0.perBankRdBursts::14          269727                       # Per bank write bursts
system.mem_ctrls0.perBankRdBursts::15          269716                       # Per bank write bursts
system.mem_ctrls0.perBankWrBursts::0            87200                       # Per bank write bursts
system.mem_ctrls0.perBankWrBursts::1            85351                       # Per bank write bursts
system.mem_ctrls0.perBankWrBursts::2            85045                       # Per bank write bursts
system.mem_ctrls0.perBankWrBursts::3            86051                       # Per bank write bursts
system.mem_ctrls0.perBankWrBursts::4            86685                       # Per bank write bursts
system.mem_ctrls0.perBankWrBursts::5            86761                       # Per bank write bursts
system.mem_ctrls0.perBankWrBursts::6            83864                       # Per bank write bursts
system.mem_ctrls0.perBankWrBursts::7            83004                       # Per bank write bursts
system.mem_ctrls0.perBankWrBursts::8            83612                       # Per bank write bursts
system.mem_ctrls0.perBankWrBursts::9            83610                       # Per bank write bursts
system.mem_ctrls0.perBankWrBursts::10           83577                       # Per bank write bursts
system.mem_ctrls0.perBankWrBursts::11           82745                       # Per bank write bursts
system.mem_ctrls0.perBankWrBursts::12           82772                       # Per bank write bursts
system.mem_ctrls0.perBankWrBursts::13           84083                       # Per bank write bursts
system.mem_ctrls0.perBankWrBursts::14           85808                       # Per bank write bursts
system.mem_ctrls0.perBankWrBursts::15           85784                       # Per bank write bursts
system.mem_ctrls0.numRdRetry                        0                       # Number of times read queue was full causing retry
system.mem_ctrls0.numWrRetry                        0                       # Number of times write queue was full causing retry
system.mem_ctrls0.totGap                 1982273784432                       # Total gap between requests
system.mem_ctrls0.readPktSize::0                    0                       # Read request sizes (log2)
system.mem_ctrls0.readPktSize::1                    0                       # Read request sizes (log2)
system.mem_ctrls0.readPktSize::2                    0                       # Read request sizes (log2)
system.mem_ctrls0.readPktSize::3                    0                       # Read request sizes (log2)
system.mem_ctrls0.readPktSize::4                    0                       # Read request sizes (log2)
system.mem_ctrls0.readPktSize::5                    0                       # Read request sizes (log2)
system.mem_ctrls0.readPktSize::6              4276020                       # Read request sizes (log2)
system.mem_ctrls0.writePktSize::0                   0                       # Write request sizes (log2)
system.mem_ctrls0.writePktSize::1                   0                       # Write request sizes (log2)
system.mem_ctrls0.writePktSize::2                   0                       # Write request sizes (log2)
system.mem_ctrls0.writePktSize::3                   0                       # Write request sizes (log2)
system.mem_ctrls0.writePktSize::4                   0                       # Write request sizes (log2)
system.mem_ctrls0.writePktSize::5                   0                       # Write request sizes (log2)
system.mem_ctrls0.writePktSize::6             1355976                       # Write request sizes (log2)
system.mem_ctrls0.rdQLenPdf::0                4107103                       # What read queue length does an incoming req see
system.mem_ctrls0.rdQLenPdf::1                 136455                       # What read queue length does an incoming req see
system.mem_ctrls0.rdQLenPdf::2                  29991                       # What read queue length does an incoming req see
system.mem_ctrls0.rdQLenPdf::3                   2037                       # What read queue length does an incoming req see
system.mem_ctrls0.rdQLenPdf::4                      2                       # What read queue length does an incoming req see
system.mem_ctrls0.rdQLenPdf::5                      0                       # What read queue length does an incoming req see
system.mem_ctrls0.rdQLenPdf::6                      0                       # What read queue length does an incoming req see
system.mem_ctrls0.rdQLenPdf::7                      0                       # What read queue length does an incoming req see
system.mem_ctrls0.rdQLenPdf::8                      0                       # What read queue length does an incoming req see
system.mem_ctrls0.rdQLenPdf::9                      0                       # What read queue length does an incoming req see
system.mem_ctrls0.rdQLenPdf::10                     0                       # What read queue length does an incoming req see
system.mem_ctrls0.rdQLenPdf::11                     0                       # What read queue length does an incoming req see
system.mem_ctrls0.rdQLenPdf::12                     0                       # What read queue length does an incoming req see
system.mem_ctrls0.rdQLenPdf::13                     0                       # What read queue length does an incoming req see
system.mem_ctrls0.rdQLenPdf::14                     0                       # What read queue length does an incoming req see
system.mem_ctrls0.rdQLenPdf::15                     0                       # What read queue length does an incoming req see
system.mem_ctrls0.rdQLenPdf::16                     0                       # What read queue length does an incoming req see
system.mem_ctrls0.rdQLenPdf::17                     0                       # What read queue length does an incoming req see
system.mem_ctrls0.rdQLenPdf::18                     0                       # What read queue length does an incoming req see
system.mem_ctrls0.rdQLenPdf::19                     0                       # What read queue length does an incoming req see
system.mem_ctrls0.rdQLenPdf::20                     0                       # What read queue length does an incoming req see
system.mem_ctrls0.rdQLenPdf::21                     0                       # What read queue length does an incoming req see
system.mem_ctrls0.rdQLenPdf::22                     0                       # What read queue length does an incoming req see
system.mem_ctrls0.rdQLenPdf::23                     0                       # What read queue length does an incoming req see
system.mem_ctrls0.rdQLenPdf::24                     0                       # What read queue length does an incoming req see
system.mem_ctrls0.rdQLenPdf::25                     0                       # What read queue length does an incoming req see
system.mem_ctrls0.rdQLenPdf::26                     0                       # What read queue length does an incoming req see
system.mem_ctrls0.rdQLenPdf::27                     0                       # What read queue length does an incoming req see
system.mem_ctrls0.rdQLenPdf::28                     0                       # What read queue length does an incoming req see
system.mem_ctrls0.rdQLenPdf::29                     0                       # What read queue length does an incoming req see
system.mem_ctrls0.rdQLenPdf::30                     0                       # What read queue length does an incoming req see
system.mem_ctrls0.rdQLenPdf::31                     0                       # What read queue length does an incoming req see
system.mem_ctrls0.wrQLenPdf::0                      2                       # What write queue length does an incoming req see
system.mem_ctrls0.wrQLenPdf::1                      2                       # What write queue length does an incoming req see
system.mem_ctrls0.wrQLenPdf::2                      2                       # What write queue length does an incoming req see
system.mem_ctrls0.wrQLenPdf::3                      2                       # What write queue length does an incoming req see
system.mem_ctrls0.wrQLenPdf::4                      2                       # What write queue length does an incoming req see
system.mem_ctrls0.wrQLenPdf::5                      2                       # What write queue length does an incoming req see
system.mem_ctrls0.wrQLenPdf::6                      2                       # What write queue length does an incoming req see
system.mem_ctrls0.wrQLenPdf::7                      2                       # What write queue length does an incoming req see
system.mem_ctrls0.wrQLenPdf::8                      2                       # What write queue length does an incoming req see
system.mem_ctrls0.wrQLenPdf::9                      2                       # What write queue length does an incoming req see
system.mem_ctrls0.wrQLenPdf::10                     2                       # What write queue length does an incoming req see
system.mem_ctrls0.wrQLenPdf::11                     2                       # What write queue length does an incoming req see
system.mem_ctrls0.wrQLenPdf::12                     2                       # What write queue length does an incoming req see
system.mem_ctrls0.wrQLenPdf::13                     2                       # What write queue length does an incoming req see
system.mem_ctrls0.wrQLenPdf::14                     2                       # What write queue length does an incoming req see
system.mem_ctrls0.wrQLenPdf::15                 48256                       # What write queue length does an incoming req see
system.mem_ctrls0.wrQLenPdf::16                 49790                       # What write queue length does an incoming req see
system.mem_ctrls0.wrQLenPdf::17                 75574                       # What write queue length does an incoming req see
system.mem_ctrls0.wrQLenPdf::18                 78378                       # What write queue length does an incoming req see
system.mem_ctrls0.wrQLenPdf::19                 78728                       # What write queue length does an incoming req see
system.mem_ctrls0.wrQLenPdf::20                 78780                       # What write queue length does an incoming req see
system.mem_ctrls0.wrQLenPdf::21                 78809                       # What write queue length does an incoming req see
system.mem_ctrls0.wrQLenPdf::22                 78804                       # What write queue length does an incoming req see
system.mem_ctrls0.wrQLenPdf::23                 78856                       # What write queue length does an incoming req see
system.mem_ctrls0.wrQLenPdf::24                 78828                       # What write queue length does an incoming req see
system.mem_ctrls0.wrQLenPdf::25                 79457                       # What write queue length does an incoming req see
system.mem_ctrls0.wrQLenPdf::26                 79160                       # What write queue length does an incoming req see
system.mem_ctrls0.wrQLenPdf::27                 78834                       # What write queue length does an incoming req see
system.mem_ctrls0.wrQLenPdf::28                 78776                       # What write queue length does an incoming req see
system.mem_ctrls0.wrQLenPdf::29                 78767                       # What write queue length does an incoming req see
system.mem_ctrls0.wrQLenPdf::30                 78806                       # What write queue length does an incoming req see
system.mem_ctrls0.wrQLenPdf::31                 78585                       # What write queue length does an incoming req see
system.mem_ctrls0.wrQLenPdf::32                 78566                       # What write queue length does an incoming req see
system.mem_ctrls0.wrQLenPdf::33                   166                       # What write queue length does an incoming req see
system.mem_ctrls0.wrQLenPdf::34                    23                       # What write queue length does an incoming req see
system.mem_ctrls0.wrQLenPdf::35                     2                       # What write queue length does an incoming req see
system.mem_ctrls0.wrQLenPdf::36                     1                       # What write queue length does an incoming req see
system.mem_ctrls0.wrQLenPdf::37                     0                       # What write queue length does an incoming req see
system.mem_ctrls0.wrQLenPdf::38                     0                       # What write queue length does an incoming req see
system.mem_ctrls0.wrQLenPdf::39                     0                       # What write queue length does an incoming req see
system.mem_ctrls0.wrQLenPdf::40                     0                       # What write queue length does an incoming req see
system.mem_ctrls0.wrQLenPdf::41                     0                       # What write queue length does an incoming req see
system.mem_ctrls0.wrQLenPdf::42                     0                       # What write queue length does an incoming req see
system.mem_ctrls0.wrQLenPdf::43                     0                       # What write queue length does an incoming req see
system.mem_ctrls0.wrQLenPdf::44                     0                       # What write queue length does an incoming req see
system.mem_ctrls0.wrQLenPdf::45                     0                       # What write queue length does an incoming req see
system.mem_ctrls0.wrQLenPdf::46                     0                       # What write queue length does an incoming req see
system.mem_ctrls0.wrQLenPdf::47                     0                       # What write queue length does an incoming req see
system.mem_ctrls0.wrQLenPdf::48                     0                       # What write queue length does an incoming req see
system.mem_ctrls0.wrQLenPdf::49                     0                       # What write queue length does an incoming req see
system.mem_ctrls0.wrQLenPdf::50                     0                       # What write queue length does an incoming req see
system.mem_ctrls0.wrQLenPdf::51                     0                       # What write queue length does an incoming req see
system.mem_ctrls0.wrQLenPdf::52                     0                       # What write queue length does an incoming req see
system.mem_ctrls0.wrQLenPdf::53                     0                       # What write queue length does an incoming req see
system.mem_ctrls0.wrQLenPdf::54                     0                       # What write queue length does an incoming req see
system.mem_ctrls0.wrQLenPdf::55                     0                       # What write queue length does an incoming req see
system.mem_ctrls0.wrQLenPdf::56                     0                       # What write queue length does an incoming req see
system.mem_ctrls0.wrQLenPdf::57                     0                       # What write queue length does an incoming req see
system.mem_ctrls0.wrQLenPdf::58                     0                       # What write queue length does an incoming req see
system.mem_ctrls0.wrQLenPdf::59                     0                       # What write queue length does an incoming req see
system.mem_ctrls0.wrQLenPdf::60                     0                       # What write queue length does an incoming req see
system.mem_ctrls0.wrQLenPdf::61                     0                       # What write queue length does an incoming req see
system.mem_ctrls0.wrQLenPdf::62                     0                       # What write queue length does an incoming req see
system.mem_ctrls0.wrQLenPdf::63                     0                       # What write queue length does an incoming req see
system.mem_ctrls0.bytesPerActivate::samples      2254986                       # Bytes accessed per row activation
system.mem_ctrls0.bytesPerActivate::mean   159.831016                       # Bytes accessed per row activation
system.mem_ctrls0.bytesPerActivate::gmean   118.044461                       # Bytes accessed per row activation
system.mem_ctrls0.bytesPerActivate::stdev   158.859941                       # Bytes accessed per row activation
system.mem_ctrls0.bytesPerActivate::0-127      1044450     46.32%     46.32% # Bytes accessed per row activation
system.mem_ctrls0.bytesPerActivate::128-255       833550     36.96%     83.28% # Bytes accessed per row activation
system.mem_ctrls0.bytesPerActivate::256-383       130673      5.79%     89.08% # Bytes accessed per row activation
system.mem_ctrls0.bytesPerActivate::384-511        86319      3.83%     92.90% # Bytes accessed per row activation
system.mem_ctrls0.bytesPerActivate::512-639        84719      3.76%     96.66% # Bytes accessed per row activation
system.mem_ctrls0.bytesPerActivate::640-767        42777      1.90%     98.56% # Bytes accessed per row activation
system.mem_ctrls0.bytesPerActivate::768-895        18511      0.82%     99.38% # Bytes accessed per row activation
system.mem_ctrls0.bytesPerActivate::896-1023         4248      0.19%     99.57% # Bytes accessed per row activation
system.mem_ctrls0.bytesPerActivate::1024-1151         9739      0.43%    100.00% # Bytes accessed per row activation
system.mem_ctrls0.bytesPerActivate::total      2254986                       # Bytes accessed per row activation
system.mem_ctrls0.rdPerTurnAround::samples        78417                       # Reads before turning the bus around for writes
system.mem_ctrls0.rdPerTurnAround::mean     54.523203                       # Reads before turning the bus around for writes
system.mem_ctrls0.rdPerTurnAround::gmean    46.913782                       # Reads before turning the bus around for writes
system.mem_ctrls0.rdPerTurnAround::stdev   117.445386                       # Reads before turning the bus around for writes
system.mem_ctrls0.rdPerTurnAround::0-1023        78416    100.00%    100.00% # Reads before turning the bus around for writes
system.mem_ctrls0.rdPerTurnAround::30720-31743            1      0.00%    100.00% # Reads before turning the bus around for writes
system.mem_ctrls0.rdPerTurnAround::total        78417                       # Reads before turning the bus around for writes
system.mem_ctrls0.wrPerTurnAround::samples        78417                       # Writes before turning the bus around for reads
system.mem_ctrls0.wrPerTurnAround::mean     17.291557                       # Writes before turning the bus around for reads
system.mem_ctrls0.wrPerTurnAround::gmean    17.261503                       # Writes before turning the bus around for reads
system.mem_ctrls0.wrPerTurnAround::stdev     1.012150                       # Writes before turning the bus around for reads
system.mem_ctrls0.wrPerTurnAround::16           28642     36.53%     36.53% # Writes before turning the bus around for reads
system.mem_ctrls0.wrPerTurnAround::17            1349      1.72%     38.25% # Writes before turning the bus around for reads
system.mem_ctrls0.wrPerTurnAround::18           45647     58.21%     96.46% # Writes before turning the bus around for reads
system.mem_ctrls0.wrPerTurnAround::19            2519      3.21%     99.67% # Writes before turning the bus around for reads
system.mem_ctrls0.wrPerTurnAround::20             226      0.29%     99.96% # Writes before turning the bus around for reads
system.mem_ctrls0.wrPerTurnAround::21              29      0.04%     99.99% # Writes before turning the bus around for reads
system.mem_ctrls0.wrPerTurnAround::22               4      0.01%    100.00% # Writes before turning the bus around for reads
system.mem_ctrls0.wrPerTurnAround::23               1      0.00%    100.00% # Writes before turning the bus around for reads
system.mem_ctrls0.wrPerTurnAround::total        78417                       # Writes before turning the bus around for reads
system.mem_ctrls0.totQLat                 93059830063                       # Total ticks spent queuing
system.mem_ctrls0.totMemAccLat           173227105063                       # Total ticks spent from burst creation until serviced by the DRAM
system.mem_ctrls0.totBusLat               21377940000                       # Total ticks spent in databus transfers
system.mem_ctrls0.avgQLat                    21765.39                       # Average queueing delay per DRAM burst
system.mem_ctrls0.avgBusLat                   5000.00                       # Average bus latency per DRAM burst
system.mem_ctrls0.avgMemAccLat               40515.39                       # Average memory access latency per DRAM burst
system.mem_ctrls0.avgRdBW                      138.04                       # Average DRAM read bandwidth in MiByte/s
system.mem_ctrls0.avgWrBW                       43.78                       # Average achieved write bandwidth in MiByte/s
system.mem_ctrls0.avgRdBWSys                   138.06                       # Average system read bandwidth in MiByte/s
system.mem_ctrls0.avgWrBWSys                    43.78                       # Average system write bandwidth in MiByte/s
system.mem_ctrls0.peakBW                     12800.00                       # Theoretical peak bandwidth in MiByte/s
system.mem_ctrls0.busUtil                        1.42                       # Data bus utilization in percentage
system.mem_ctrls0.busUtilRead                    1.08                       # Data bus utilization in percentage for reads
system.mem_ctrls0.busUtilWrite                   0.34                       # Data bus utilization in percentage for writes
system.mem_ctrls0.avgRdQLen                      1.01                       # Average read queue length when enqueuing
system.mem_ctrls0.avgWrQLen                     24.48                       # Average write queue length when enqueuing
system.mem_ctrls0.readRowHits                 2632616                       # Number of row buffer hits during reads
system.mem_ctrls0.writeRowHits                 743927                       # Number of row buffer hits during writes
system.mem_ctrls0.readRowHitRate                61.57                       # Row buffer hit rate for reads
system.mem_ctrls0.writeRowHitRate               54.86                       # Row buffer hit rate for writes
system.mem_ctrls0.avgGap                    351966.48                       # Average gap between requests
system.mem_ctrls0.pageHitRate                   59.96                       # Row buffer hit rate, read and write combined
system.mem_ctrls0_0.actEnergy              8097409740                       # Energy for activate commands per rank (pJ)
system.mem_ctrls0_0.preEnergy              4303852575                       # Energy for precharge commands per rank (pJ)
system.mem_ctrls0_0.readEnergy            15338812020                       # Energy for read commands per rank (pJ)
system.mem_ctrls0_0.writeEnergy            3570276420                       # Energy for write commands per rank (pJ)
system.mem_ctrls0_0.refreshEnergy        153513715680.000031                       # Energy for refresh commands per rank (pJ)
system.mem_ctrls0_0.actBackEnergy         95747125980                       # Energy for active background per rank (pJ)
system.mem_ctrls0_0.preBackEnergy          5445872640                       # Energy for precharge background per rank (pJ)
system.mem_ctrls0_0.actPowerDownEnergy   591518347020                       # Energy for active power-down per rank (pJ)
system.mem_ctrls0_0.prePowerDownEnergy   117910423680                       # Energy for precharge power-down per rank (pJ)
system.mem_ctrls0_0.selfRefreshEnergy     45796042575                       # Energy for self refresh per rank (pJ)
system.mem_ctrls0_0.totalEnergy          1041271569960                       # Total energy per rank (pJ)
system.mem_ctrls0_0.averagePower           525.291458                       # Core power per rank (mW)
system.mem_ctrls0_0.totalIdleTime        1758053905147                       # Total Idle time Per DRAM Rank
system.mem_ctrls0_0.memoryStateTime::IDLE   5828355760                       # Time in different power states
system.mem_ctrls0_0.memoryStateTime::REF  65037546000                       # Time in different power states
system.mem_ctrls0_0.memoryStateTime::SREF 153806336056                       # Time in different power states
system.mem_ctrls0_0.memoryStateTime::PRE_PDN 307060677820                       # Time in different power states
system.mem_ctrls0_0.memoryStateTime::ACT 153354115912                       # Time in different power states
system.mem_ctrls0_0.memoryStateTime::ACT_PDN 1297186891271                       # Time in different power states
system.mem_ctrls0_1.actEnergy              8003268840                       # Energy for activate commands per rank (pJ)
system.mem_ctrls0_1.preEnergy              4253819295                       # Energy for precharge commands per rank (pJ)
system.mem_ctrls0_1.readEnergy            15188879160                       # Energy for read commands per rank (pJ)
system.mem_ctrls0_1.writeEnergy            3507793020                       # Energy for write commands per rank (pJ)
system.mem_ctrls0_1.refreshEnergy        152953164000.000031                       # Energy for refresh commands per rank (pJ)
system.mem_ctrls0_1.actBackEnergy         95722014630                       # Energy for active background per rank (pJ)
system.mem_ctrls0_1.preBackEnergy          5448403200                       # Energy for precharge background per rank (pJ)
system.mem_ctrls0_1.actPowerDownEnergy   586879224750                       # Energy for active power-down per rank (pJ)
system.mem_ctrls0_1.prePowerDownEnergy   118301888640                       # Energy for precharge power-down per rank (pJ)
system.mem_ctrls0_1.selfRefreshEnergy     48165416880                       # Energy for self refresh per rank (pJ)
system.mem_ctrls0_1.totalEnergy          1038454615605                       # Total energy per rank (pJ)
system.mem_ctrls0_1.averagePower           523.870387                       # Core power per rank (mW)
system.mem_ctrls0_1.totalIdleTime        1758104667208                       # Total Idle time Per DRAM Rank
system.mem_ctrls0_1.memoryStateTime::IDLE   5881246006                       # Time in different power states
system.mem_ctrls0_1.memoryStateTime::REF  64802004000                       # Time in different power states
system.mem_ctrls0_1.memoryStateTime::SREF 163006661476                       # Time in different power states
system.mem_ctrls0_1.memoryStateTime::PRE_PDN 308075881131                       # Time in different power states
system.mem_ctrls0_1.memoryStateTime::ACT 153486005605                       # Time in different power states
system.mem_ctrls0_1.memoryStateTime::ACT_PDN 1287022124601                       # Time in different power states
system.mem_ctrls1.pwrStateResidencyTicks::UNDEFINED 75252427723521                       # Cumulative time (in ticks) in various power states
system.mem_ctrls1.bytes_read::cpu.inst            128                       # Number of bytes read from this memory
system.mem_ctrls1.bytes_read::cpu.data            192                       # Number of bytes read from this memory
system.mem_ctrls1.bytes_read::switch_cpus.inst        43840                       # Number of bytes read from this memory
system.mem_ctrls1.bytes_read::switch_cpus.data    232703360                       # Number of bytes read from this memory
system.mem_ctrls1.bytes_read::switch_cpus_1.inst         3200                       # Number of bytes read from this memory
system.mem_ctrls1.bytes_read::switch_cpus_1.data     40902464                       # Number of bytes read from this memory
system.mem_ctrls1.bytes_read::total         273653184                       # Number of bytes read from this memory
system.mem_ctrls1.bytes_inst_read::cpu.inst          128                       # Number of instructions bytes read from this memory
system.mem_ctrls1.bytes_inst_read::switch_cpus.inst        43840                       # Number of instructions bytes read from this memory
system.mem_ctrls1.bytes_inst_read::switch_cpus_1.inst         3200                       # Number of instructions bytes read from this memory
system.mem_ctrls1.bytes_inst_read::total        47168                       # Number of instructions bytes read from this memory
system.mem_ctrls1.bytes_written::writebacks     86778112                       # Number of bytes written to this memory
system.mem_ctrls1.bytes_written::total       86778112                       # Number of bytes written to this memory
system.mem_ctrls1.num_reads::cpu.inst               2                       # Number of read requests responded to by this memory
system.mem_ctrls1.num_reads::cpu.data               3                       # Number of read requests responded to by this memory
system.mem_ctrls1.num_reads::switch_cpus.inst          685                       # Number of read requests responded to by this memory
system.mem_ctrls1.num_reads::switch_cpus.data      3635990                       # Number of read requests responded to by this memory
system.mem_ctrls1.num_reads::switch_cpus_1.inst           50                       # Number of read requests responded to by this memory
system.mem_ctrls1.num_reads::switch_cpus_1.data       639101                       # Number of read requests responded to by this memory
system.mem_ctrls1.num_reads::total            4275831                       # Number of read requests responded to by this memory
system.mem_ctrls1.num_writes::writebacks      1355908                       # Number of write requests responded to by this memory
system.mem_ctrls1.num_writes::total           1355908                       # Number of write requests responded to by this memory
system.mem_ctrls1.bw_read::cpu.inst                65                       # Total read bandwidth from this memory (bytes/s)
system.mem_ctrls1.bw_read::cpu.data                97                       # Total read bandwidth from this memory (bytes/s)
system.mem_ctrls1.bw_read::switch_cpus.inst        22116                       # Total read bandwidth from this memory (bytes/s)
system.mem_ctrls1.bw_read::switch_cpus.data    117392131                       # Total read bandwidth from this memory (bytes/s)
system.mem_ctrls1.bw_read::switch_cpus_1.inst         1614                       # Total read bandwidth from this memory (bytes/s)
system.mem_ctrls1.bw_read::switch_cpus_1.data     20634113                       # Total read bandwidth from this memory (bytes/s)
system.mem_ctrls1.bw_read::total            138050136                       # Total read bandwidth from this memory (bytes/s)
system.mem_ctrls1.bw_inst_read::cpu.inst           65                       # Instruction read bandwidth from this memory (bytes/s)
system.mem_ctrls1.bw_inst_read::switch_cpus.inst        22116                       # Instruction read bandwidth from this memory (bytes/s)
system.mem_ctrls1.bw_inst_read::switch_cpus_1.inst         1614                       # Instruction read bandwidth from this memory (bytes/s)
system.mem_ctrls1.bw_inst_read::total           23795                       # Instruction read bandwidth from this memory (bytes/s)
system.mem_ctrls1.bw_write::writebacks       43777054                       # Write bandwidth from this memory (bytes/s)
system.mem_ctrls1.bw_write::total            43777054                       # Write bandwidth from this memory (bytes/s)
system.mem_ctrls1.bw_total::writebacks       43777054                       # Total bandwidth to/from this memory (bytes/s)
system.mem_ctrls1.bw_total::cpu.inst               65                       # Total bandwidth to/from this memory (bytes/s)
system.mem_ctrls1.bw_total::cpu.data               97                       # Total bandwidth to/from this memory (bytes/s)
system.mem_ctrls1.bw_total::switch_cpus.inst        22116                       # Total bandwidth to/from this memory (bytes/s)
system.mem_ctrls1.bw_total::switch_cpus.data    117392131                       # Total bandwidth to/from this memory (bytes/s)
system.mem_ctrls1.bw_total::switch_cpus_1.inst         1614                       # Total bandwidth to/from this memory (bytes/s)
system.mem_ctrls1.bw_total::switch_cpus_1.data     20634113                       # Total bandwidth to/from this memory (bytes/s)
system.mem_ctrls1.bw_total::total           181827189                       # Total bandwidth to/from this memory (bytes/s)
system.mem_ctrls1.readReqs                    4275831                       # Number of read requests accepted
system.mem_ctrls1.writeReqs                   1355908                       # Number of write requests accepted
system.mem_ctrls1.readBursts                  4275831                       # Number of DRAM read bursts, including those serviced by the write queue
system.mem_ctrls1.writeBursts                 1355908                       # Number of DRAM write bursts, including those merged in the write queue
system.mem_ctrls1.bytesReadDRAM             273625984                       # Total number of bytes read from DRAM
system.mem_ctrls1.bytesReadWrQ                  27200                       # Total number of bytes read from write queue
system.mem_ctrls1.bytesWritten               86776512                       # Total number of bytes written to DRAM
system.mem_ctrls1.bytesReadSys              273653184                       # Total read bytes from the system interface side
system.mem_ctrls1.bytesWrittenSys            86778112                       # Total written bytes from the system interface side
system.mem_ctrls1.servicedByWrQ                   425                       # Number of DRAM read bursts serviced by the write queue
system.mem_ctrls1.mergedWrBursts                    0                       # Number of DRAM write bursts merged with an existing one
system.mem_ctrls1.neitherReadNorWriteReqs            0                       # Number of requests that are neither read nor write
system.mem_ctrls1.perBankRdBursts::0           272878                       # Per bank write bursts
system.mem_ctrls1.perBankRdBursts::1           268233                       # Per bank write bursts
system.mem_ctrls1.perBankRdBursts::2           266217                       # Per bank write bursts
system.mem_ctrls1.perBankRdBursts::3           266932                       # Per bank write bursts
system.mem_ctrls1.perBankRdBursts::4           267239                       # Per bank write bursts
system.mem_ctrls1.perBankRdBursts::5           269331                       # Per bank write bursts
system.mem_ctrls1.perBankRdBursts::6           268051                       # Per bank write bursts
system.mem_ctrls1.perBankRdBursts::7           269227                       # Per bank write bursts
system.mem_ctrls1.perBankRdBursts::8           270665                       # Per bank write bursts
system.mem_ctrls1.perBankRdBursts::9           267479                       # Per bank write bursts
system.mem_ctrls1.perBankRdBursts::10          262296                       # Per bank write bursts
system.mem_ctrls1.perBankRdBursts::11          260139                       # Per bank write bursts
system.mem_ctrls1.perBankRdBursts::12          261206                       # Per bank write bursts
system.mem_ctrls1.perBankRdBursts::13          265870                       # Per bank write bursts
system.mem_ctrls1.perBankRdBursts::14          269813                       # Per bank write bursts
system.mem_ctrls1.perBankRdBursts::15          269830                       # Per bank write bursts
system.mem_ctrls1.perBankWrBursts::0            87177                       # Per bank write bursts
system.mem_ctrls1.perBankWrBursts::1            85323                       # Per bank write bursts
system.mem_ctrls1.perBankWrBursts::2            84999                       # Per bank write bursts
system.mem_ctrls1.perBankWrBursts::3            86172                       # Per bank write bursts
system.mem_ctrls1.perBankWrBursts::4            86721                       # Per bank write bursts
system.mem_ctrls1.perBankWrBursts::5            86843                       # Per bank write bursts
system.mem_ctrls1.perBankWrBursts::6            83787                       # Per bank write bursts
system.mem_ctrls1.perBankWrBursts::7            82949                       # Per bank write bursts
system.mem_ctrls1.perBankWrBursts::8            83470                       # Per bank write bursts
system.mem_ctrls1.perBankWrBursts::9            83591                       # Per bank write bursts
system.mem_ctrls1.perBankWrBursts::10           83601                       # Per bank write bursts
system.mem_ctrls1.perBankWrBursts::11           82777                       # Per bank write bursts
system.mem_ctrls1.perBankWrBursts::12           82722                       # Per bank write bursts
system.mem_ctrls1.perBankWrBursts::13           84008                       # Per bank write bursts
system.mem_ctrls1.perBankWrBursts::14           85835                       # Per bank write bursts
system.mem_ctrls1.perBankWrBursts::15           85908                       # Per bank write bursts
system.mem_ctrls1.numRdRetry                        0                       # Number of times read queue was full causing retry
system.mem_ctrls1.numWrRetry                        0                       # Number of times write queue was full causing retry
system.mem_ctrls1.totGap                 1982273781294                       # Total gap between requests
system.mem_ctrls1.readPktSize::0                    0                       # Read request sizes (log2)
system.mem_ctrls1.readPktSize::1                    0                       # Read request sizes (log2)
system.mem_ctrls1.readPktSize::2                    0                       # Read request sizes (log2)
system.mem_ctrls1.readPktSize::3                    0                       # Read request sizes (log2)
system.mem_ctrls1.readPktSize::4                    0                       # Read request sizes (log2)
system.mem_ctrls1.readPktSize::5                    0                       # Read request sizes (log2)
system.mem_ctrls1.readPktSize::6              4275831                       # Read request sizes (log2)
system.mem_ctrls1.writePktSize::0                   0                       # Write request sizes (log2)
system.mem_ctrls1.writePktSize::1                   0                       # Write request sizes (log2)
system.mem_ctrls1.writePktSize::2                   0                       # Write request sizes (log2)
system.mem_ctrls1.writePktSize::3                   0                       # Write request sizes (log2)
system.mem_ctrls1.writePktSize::4                   0                       # Write request sizes (log2)
system.mem_ctrls1.writePktSize::5                   0                       # Write request sizes (log2)
system.mem_ctrls1.writePktSize::6             1355908                       # Write request sizes (log2)
system.mem_ctrls1.rdQLenPdf::0                4106891                       # What read queue length does an incoming req see
system.mem_ctrls1.rdQLenPdf::1                 136535                       # What read queue length does an incoming req see
system.mem_ctrls1.rdQLenPdf::2                  29955                       # What read queue length does an incoming req see
system.mem_ctrls1.rdQLenPdf::3                   2025                       # What read queue length does an incoming req see
system.mem_ctrls1.rdQLenPdf::4                      0                       # What read queue length does an incoming req see
system.mem_ctrls1.rdQLenPdf::5                      0                       # What read queue length does an incoming req see
system.mem_ctrls1.rdQLenPdf::6                      0                       # What read queue length does an incoming req see
system.mem_ctrls1.rdQLenPdf::7                      0                       # What read queue length does an incoming req see
system.mem_ctrls1.rdQLenPdf::8                      0                       # What read queue length does an incoming req see
system.mem_ctrls1.rdQLenPdf::9                      0                       # What read queue length does an incoming req see
system.mem_ctrls1.rdQLenPdf::10                     0                       # What read queue length does an incoming req see
system.mem_ctrls1.rdQLenPdf::11                     0                       # What read queue length does an incoming req see
system.mem_ctrls1.rdQLenPdf::12                     0                       # What read queue length does an incoming req see
system.mem_ctrls1.rdQLenPdf::13                     0                       # What read queue length does an incoming req see
system.mem_ctrls1.rdQLenPdf::14                     0                       # What read queue length does an incoming req see
system.mem_ctrls1.rdQLenPdf::15                     0                       # What read queue length does an incoming req see
system.mem_ctrls1.rdQLenPdf::16                     0                       # What read queue length does an incoming req see
system.mem_ctrls1.rdQLenPdf::17                     0                       # What read queue length does an incoming req see
system.mem_ctrls1.rdQLenPdf::18                     0                       # What read queue length does an incoming req see
system.mem_ctrls1.rdQLenPdf::19                     0                       # What read queue length does an incoming req see
system.mem_ctrls1.rdQLenPdf::20                     0                       # What read queue length does an incoming req see
system.mem_ctrls1.rdQLenPdf::21                     0                       # What read queue length does an incoming req see
system.mem_ctrls1.rdQLenPdf::22                     0                       # What read queue length does an incoming req see
system.mem_ctrls1.rdQLenPdf::23                     0                       # What read queue length does an incoming req see
system.mem_ctrls1.rdQLenPdf::24                     0                       # What read queue length does an incoming req see
system.mem_ctrls1.rdQLenPdf::25                     0                       # What read queue length does an incoming req see
system.mem_ctrls1.rdQLenPdf::26                     0                       # What read queue length does an incoming req see
system.mem_ctrls1.rdQLenPdf::27                     0                       # What read queue length does an incoming req see
system.mem_ctrls1.rdQLenPdf::28                     0                       # What read queue length does an incoming req see
system.mem_ctrls1.rdQLenPdf::29                     0                       # What read queue length does an incoming req see
system.mem_ctrls1.rdQLenPdf::30                     0                       # What read queue length does an incoming req see
system.mem_ctrls1.rdQLenPdf::31                     0                       # What read queue length does an incoming req see
system.mem_ctrls1.wrQLenPdf::0                      2                       # What write queue length does an incoming req see
system.mem_ctrls1.wrQLenPdf::1                      2                       # What write queue length does an incoming req see
system.mem_ctrls1.wrQLenPdf::2                      2                       # What write queue length does an incoming req see
system.mem_ctrls1.wrQLenPdf::3                      2                       # What write queue length does an incoming req see
system.mem_ctrls1.wrQLenPdf::4                      2                       # What write queue length does an incoming req see
system.mem_ctrls1.wrQLenPdf::5                      2                       # What write queue length does an incoming req see
system.mem_ctrls1.wrQLenPdf::6                      2                       # What write queue length does an incoming req see
system.mem_ctrls1.wrQLenPdf::7                      2                       # What write queue length does an incoming req see
system.mem_ctrls1.wrQLenPdf::8                      2                       # What write queue length does an incoming req see
system.mem_ctrls1.wrQLenPdf::9                      2                       # What write queue length does an incoming req see
system.mem_ctrls1.wrQLenPdf::10                     2                       # What write queue length does an incoming req see
system.mem_ctrls1.wrQLenPdf::11                     2                       # What write queue length does an incoming req see
system.mem_ctrls1.wrQLenPdf::12                     2                       # What write queue length does an incoming req see
system.mem_ctrls1.wrQLenPdf::13                     2                       # What write queue length does an incoming req see
system.mem_ctrls1.wrQLenPdf::14                     2                       # What write queue length does an incoming req see
system.mem_ctrls1.wrQLenPdf::15                 48152                       # What write queue length does an incoming req see
system.mem_ctrls1.wrQLenPdf::16                 49645                       # What write queue length does an incoming req see
system.mem_ctrls1.wrQLenPdf::17                 75484                       # What write queue length does an incoming req see
system.mem_ctrls1.wrQLenPdf::18                 78303                       # What write queue length does an incoming req see
system.mem_ctrls1.wrQLenPdf::19                 78770                       # What write queue length does an incoming req see
system.mem_ctrls1.wrQLenPdf::20                 78800                       # What write queue length does an incoming req see
system.mem_ctrls1.wrQLenPdf::21                 78841                       # What write queue length does an incoming req see
system.mem_ctrls1.wrQLenPdf::22                 78884                       # What write queue length does an incoming req see
system.mem_ctrls1.wrQLenPdf::23                 78881                       # What write queue length does an incoming req see
system.mem_ctrls1.wrQLenPdf::24                 78862                       # What write queue length does an incoming req see
system.mem_ctrls1.wrQLenPdf::25                 79489                       # What write queue length does an incoming req see
system.mem_ctrls1.wrQLenPdf::26                 79231                       # What write queue length does an incoming req see
system.mem_ctrls1.wrQLenPdf::27                 78818                       # What write queue length does an incoming req see
system.mem_ctrls1.wrQLenPdf::28                 78796                       # What write queue length does an incoming req see
system.mem_ctrls1.wrQLenPdf::29                 78768                       # What write queue length does an incoming req see
system.mem_ctrls1.wrQLenPdf::30                 78865                       # What write queue length does an incoming req see
system.mem_ctrls1.wrQLenPdf::31                 78576                       # What write queue length does an incoming req see
system.mem_ctrls1.wrQLenPdf::32                 78559                       # What write queue length does an incoming req see
system.mem_ctrls1.wrQLenPdf::33                   137                       # What write queue length does an incoming req see
system.mem_ctrls1.wrQLenPdf::34                    13                       # What write queue length does an incoming req see
system.mem_ctrls1.wrQLenPdf::35                     3                       # What write queue length does an incoming req see
system.mem_ctrls1.wrQLenPdf::36                     1                       # What write queue length does an incoming req see
system.mem_ctrls1.wrQLenPdf::37                     0                       # What write queue length does an incoming req see
system.mem_ctrls1.wrQLenPdf::38                     0                       # What write queue length does an incoming req see
system.mem_ctrls1.wrQLenPdf::39                     0                       # What write queue length does an incoming req see
system.mem_ctrls1.wrQLenPdf::40                     0                       # What write queue length does an incoming req see
system.mem_ctrls1.wrQLenPdf::41                     0                       # What write queue length does an incoming req see
system.mem_ctrls1.wrQLenPdf::42                     0                       # What write queue length does an incoming req see
system.mem_ctrls1.wrQLenPdf::43                     0                       # What write queue length does an incoming req see
system.mem_ctrls1.wrQLenPdf::44                     0                       # What write queue length does an incoming req see
system.mem_ctrls1.wrQLenPdf::45                     0                       # What write queue length does an incoming req see
system.mem_ctrls1.wrQLenPdf::46                     0                       # What write queue length does an incoming req see
system.mem_ctrls1.wrQLenPdf::47                     0                       # What write queue length does an incoming req see
system.mem_ctrls1.wrQLenPdf::48                     0                       # What write queue length does an incoming req see
system.mem_ctrls1.wrQLenPdf::49                     0                       # What write queue length does an incoming req see
system.mem_ctrls1.wrQLenPdf::50                     0                       # What write queue length does an incoming req see
system.mem_ctrls1.wrQLenPdf::51                     0                       # What write queue length does an incoming req see
system.mem_ctrls1.wrQLenPdf::52                     0                       # What write queue length does an incoming req see
system.mem_ctrls1.wrQLenPdf::53                     0                       # What write queue length does an incoming req see
system.mem_ctrls1.wrQLenPdf::54                     0                       # What write queue length does an incoming req see
system.mem_ctrls1.wrQLenPdf::55                     0                       # What write queue length does an incoming req see
system.mem_ctrls1.wrQLenPdf::56                     0                       # What write queue length does an incoming req see
system.mem_ctrls1.wrQLenPdf::57                     0                       # What write queue length does an incoming req see
system.mem_ctrls1.wrQLenPdf::58                     0                       # What write queue length does an incoming req see
system.mem_ctrls1.wrQLenPdf::59                     0                       # What write queue length does an incoming req see
system.mem_ctrls1.wrQLenPdf::60                     0                       # What write queue length does an incoming req see
system.mem_ctrls1.wrQLenPdf::61                     0                       # What write queue length does an incoming req see
system.mem_ctrls1.wrQLenPdf::62                     0                       # What write queue length does an incoming req see
system.mem_ctrls1.wrQLenPdf::63                     0                       # What write queue length does an incoming req see
system.mem_ctrls1.bytesPerActivate::samples      2253149                       # Bytes accessed per row activation
system.mem_ctrls1.bytesPerActivate::mean   159.953999                       # Bytes accessed per row activation
system.mem_ctrls1.bytesPerActivate::gmean   118.151635                       # Bytes accessed per row activation
system.mem_ctrls1.bytesPerActivate::stdev   158.880855                       # Bytes accessed per row activation
system.mem_ctrls1.bytesPerActivate::0-127      1041660     46.23%     46.23% # Bytes accessed per row activation
system.mem_ctrls1.bytesPerActivate::128-255       834870     37.05%     83.28% # Bytes accessed per row activation
system.mem_ctrls1.bytesPerActivate::256-383       130215      5.78%     89.06% # Bytes accessed per row activation
system.mem_ctrls1.bytesPerActivate::384-511        86447      3.84%     92.90% # Bytes accessed per row activation
system.mem_ctrls1.bytesPerActivate::512-639        84608      3.76%     96.66% # Bytes accessed per row activation
system.mem_ctrls1.bytesPerActivate::640-767        43080      1.91%     98.57% # Bytes accessed per row activation
system.mem_ctrls1.bytesPerActivate::768-895        18308      0.81%     99.38% # Bytes accessed per row activation
system.mem_ctrls1.bytesPerActivate::896-1023         4219      0.19%     99.57% # Bytes accessed per row activation
system.mem_ctrls1.bytesPerActivate::1024-1151         9742      0.43%    100.00% # Bytes accessed per row activation
system.mem_ctrls1.bytesPerActivate::total      2253149                       # Bytes accessed per row activation
system.mem_ctrls1.rdPerTurnAround::samples        78431                       # Reads before turning the bus around for writes
system.mem_ctrls1.rdPerTurnAround::mean     54.511163                       # Reads before turning the bus around for writes
system.mem_ctrls1.rdPerTurnAround::gmean    46.882948                       # Reads before turning the bus around for writes
system.mem_ctrls1.rdPerTurnAround::stdev   117.407672                       # Reads before turning the bus around for writes
system.mem_ctrls1.rdPerTurnAround::0-1023        78430    100.00%    100.00% # Reads before turning the bus around for writes
system.mem_ctrls1.rdPerTurnAround::30720-31743            1      0.00%    100.00% # Reads before turning the bus around for writes
system.mem_ctrls1.rdPerTurnAround::total        78431                       # Reads before turning the bus around for writes
system.mem_ctrls1.wrPerTurnAround::samples        78431                       # Writes before turning the bus around for reads
system.mem_ctrls1.wrPerTurnAround::mean     17.287590                       # Writes before turning the bus around for reads
system.mem_ctrls1.wrPerTurnAround::gmean    17.257389                       # Writes before turning the bus around for reads
system.mem_ctrls1.wrPerTurnAround::stdev     1.015016                       # Writes before turning the bus around for reads
system.mem_ctrls1.wrPerTurnAround::16           28860     36.80%     36.80% # Writes before turning the bus around for reads
system.mem_ctrls1.wrPerTurnAround::17            1236      1.58%     38.37% # Writes before turning the bus around for reads
system.mem_ctrls1.wrPerTurnAround::18           45573     58.11%     96.48% # Writes before turning the bus around for reads
system.mem_ctrls1.wrPerTurnAround::19            2496      3.18%     99.66% # Writes before turning the bus around for reads
system.mem_ctrls1.wrPerTurnAround::20             228      0.29%     99.95% # Writes before turning the bus around for reads
system.mem_ctrls1.wrPerTurnAround::21              33      0.04%     99.99% # Writes before turning the bus around for reads
system.mem_ctrls1.wrPerTurnAround::22               3      0.00%    100.00% # Writes before turning the bus around for reads
system.mem_ctrls1.wrPerTurnAround::24               1      0.00%    100.00% # Writes before turning the bus around for reads
system.mem_ctrls1.wrPerTurnAround::30               1      0.00%    100.00% # Writes before turning the bus around for reads
system.mem_ctrls1.wrPerTurnAround::total        78431                       # Writes before turning the bus around for reads
system.mem_ctrls1.totQLat                 92906001584                       # Total ticks spent queuing
system.mem_ctrls1.totMemAccLat           173069864084                       # Total ticks spent from burst creation until serviced by the DRAM
system.mem_ctrls1.totBusLat               21377030000                       # Total ticks spent in databus transfers
system.mem_ctrls1.avgQLat                    21730.33                       # Average queueing delay per DRAM burst
system.mem_ctrls1.avgBusLat                   5000.00                       # Average bus latency per DRAM burst
system.mem_ctrls1.avgMemAccLat               40480.33                       # Average memory access latency per DRAM burst
system.mem_ctrls1.avgRdBW                      138.04                       # Average DRAM read bandwidth in MiByte/s
system.mem_ctrls1.avgWrBW                       43.78                       # Average achieved write bandwidth in MiByte/s
system.mem_ctrls1.avgRdBWSys                   138.05                       # Average system read bandwidth in MiByte/s
system.mem_ctrls1.avgWrBWSys                    43.78                       # Average system write bandwidth in MiByte/s
system.mem_ctrls1.peakBW                     12800.00                       # Theoretical peak bandwidth in MiByte/s
system.mem_ctrls1.busUtil                        1.42                       # Data bus utilization in percentage
system.mem_ctrls1.busUtilRead                    1.08                       # Data bus utilization in percentage for reads
system.mem_ctrls1.busUtilWrite                   0.34                       # Data bus utilization in percentage for writes
system.mem_ctrls1.avgRdQLen                      1.01                       # Average read queue length when enqueuing
system.mem_ctrls1.avgWrQLen                     24.47                       # Average write queue length when enqueuing
system.mem_ctrls1.readRowHits                 2633542                       # Number of row buffer hits during reads
system.mem_ctrls1.writeRowHits                 744587                       # Number of row buffer hits during writes
system.mem_ctrls1.readRowHitRate                61.60                       # Row buffer hit rate for reads
system.mem_ctrls1.writeRowHitRate               54.91                       # Row buffer hit rate for writes
system.mem_ctrls1.avgGap                    351982.54                       # Average gap between requests
system.mem_ctrls1.pageHitRate                   59.99                       # Row buffer hit rate, read and write combined
system.mem_ctrls1_0.actEnergy              8087263800                       # Energy for activate commands per rank (pJ)
system.mem_ctrls1_0.preEnergy              4298459880                       # Energy for precharge commands per rank (pJ)
system.mem_ctrls1_0.readEnergy            15337491120                       # Energy for read commands per rank (pJ)
system.mem_ctrls1_0.writeEnergy            3570328620                       # Energy for write commands per rank (pJ)
system.mem_ctrls1_0.refreshEnergy        153440573520.000031                       # Energy for refresh commands per rank (pJ)
system.mem_ctrls1_0.actBackEnergy         95955432480                       # Energy for active background per rank (pJ)
system.mem_ctrls1_0.preBackEnergy          5435115360                       # Energy for precharge background per rank (pJ)
system.mem_ctrls1_0.actPowerDownEnergy   591356826690                       # Energy for active power-down per rank (pJ)
system.mem_ctrls1_0.prePowerDownEnergy   117731005440                       # Energy for precharge power-down per rank (pJ)
system.mem_ctrls1_0.selfRefreshEnergy     45850198950                       # Energy for self refresh per rank (pJ)
system.mem_ctrls1_0.totalEnergy          1041094118970                       # Total energy per rank (pJ)
system.mem_ctrls1_0.averagePower           525.201941                       # Core power per rank (mW)
system.mem_ctrls1_0.totalIdleTime        1757621508183                       # Total Idle time Per DRAM Rank
system.mem_ctrls1_0.memoryStateTime::IDLE   5799598040                       # Time in different power states
system.mem_ctrls1_0.memoryStateTime::REF  65006036000                       # Time in different power states
system.mem_ctrls1_0.memoryStateTime::SREF 154195185798                       # Time in different power states
system.mem_ctrls1_0.memoryStateTime::PRE_PDN 306587795254                       # Time in different power states
system.mem_ctrls1_0.memoryStateTime::ACT 153846678806                       # Time in different power states
system.mem_ctrls1_0.memoryStateTime::ACT_PDN 1296838628921                       # Time in different power states
system.mem_ctrls1_1.actEnergy              8000298600                       # Energy for activate commands per rank (pJ)
system.mem_ctrls1_1.preEnergy              4252240575                       # Energy for precharge commands per rank (pJ)
system.mem_ctrls1_1.readEnergy            15188907720                       # Energy for read commands per rank (pJ)
system.mem_ctrls1_1.writeEnergy            3507380640                       # Energy for write commands per rank (pJ)
system.mem_ctrls1_1.refreshEnergy        152956237200.000031                       # Energy for refresh commands per rank (pJ)
system.mem_ctrls1_1.actBackEnergy         96047377470                       # Energy for active background per rank (pJ)
system.mem_ctrls1_1.preBackEnergy          5436536160                       # Energy for precharge background per rank (pJ)
system.mem_ctrls1_1.actPowerDownEnergy   586775587920                       # Energy for active power-down per rank (pJ)
system.mem_ctrls1_1.prePowerDownEnergy   118037040480                       # Energy for precharge power-down per rank (pJ)
system.mem_ctrls1_1.selfRefreshEnergy     48242856990                       # Energy for self refresh per rank (pJ)
system.mem_ctrls1_1.totalEnergy          1038478198935                       # Total energy per rank (pJ)
system.mem_ctrls1_1.averagePower           523.882286                       # Core power per rank (mW)
system.mem_ctrls1_1.totalIdleTime        1757405804579                       # Total Idle time Per DRAM Rank
system.mem_ctrls1_1.memoryStateTime::IDLE   5853379255                       # Time in different power states
system.mem_ctrls1_1.memoryStateTime::REF  64803724000                       # Time in different power states
system.mem_ctrls1_1.memoryStateTime::SREF 163234297528                       # Time in different power states
system.mem_ctrls1_1.memoryStateTime::PRE_PDN 307388396595                       # Time in different power states
system.mem_ctrls1_1.memoryStateTime::ACT 154210784990                       # Time in different power states
system.mem_ctrls1_1.memoryStateTime::ACT_PDN 1286783340451                       # Time in different power states
system.pwrStateResidencyTicks::UNDEFINED 75252427723521                       # Cumulative time (in ticks) in various power states
system.cpu.branchPred.lookups                       2                       # Number of BP lookups
system.cpu.branchPred.condPredicted                 2                       # Number of conditional branches predicted
system.cpu.branchPred.condIncorrect                 1                       # Number of conditional branches incorrect
system.cpu.branchPred.BTBLookups                    0                       # Number of BTB lookups
system.cpu.branchPred.BTBHits                       0                       # Number of BTB hits
system.cpu.branchPred.BTBCorrect                    0                       # Number of correct BTB predictions (this stat may not work properly.
system.cpu.branchPred.BTBHitPct                   nan                       # BTB Hit Percentage
system.cpu.branchPred.usedRAS                       0                       # Number of times the RAS was used to get a target.
system.cpu.branchPred.RASInCorrect                  0                       # Number of incorrect RAS predictions.
system.cpu.branchPred.indirectLookups               0                       # Number of indirect predictor lookups.
system.cpu.branchPred.indirectHits                  0                       # Number of indirect target hits.
system.cpu.branchPred.indirectMisses                0                       # Number of indirect misses.
system.cpu.branchPredindirectMispredicted            0                       # Number of mispredicted indirect branches.
system.cpu_voltage_domain.voltage                   1                       # Voltage in Volts
system.cpu_clk_domain.clock                       333                       # Clock period in ticks
system.cpu.dtb.fetch_hits                           0                       # ITB hits
system.cpu.dtb.fetch_misses                         0                       # ITB misses
system.cpu.dtb.fetch_acv                            0                       # ITB acv
system.cpu.dtb.fetch_accesses                       0                       # ITB accesses
system.cpu.dtb.read_hits                           23                       # DTB read hits
system.cpu.dtb.read_misses                          0                       # DTB read misses
system.cpu.dtb.read_acv                             0                       # DTB read access violations
system.cpu.dtb.read_accesses                       23                       # DTB read accesses
system.cpu.dtb.write_hits                           3                       # DTB write hits
system.cpu.dtb.write_misses                         0                       # DTB write misses
system.cpu.dtb.write_acv                            0                       # DTB write access violations
system.cpu.dtb.write_accesses                       3                       # DTB write accesses
system.cpu.dtb.data_hits                           26                       # DTB hits
system.cpu.dtb.data_misses                          0                       # DTB misses
system.cpu.dtb.data_acv                             0                       # DTB access violations
system.cpu.dtb.data_accesses                       26                       # DTB accesses
system.cpu.itb.fetch_hits                           7                       # ITB hits
system.cpu.itb.fetch_misses                         0                       # ITB misses
system.cpu.itb.fetch_acv                            0                       # ITB acv
system.cpu.itb.fetch_accesses                       7                       # ITB accesses
system.cpu.itb.read_hits                            0                       # DTB read hits
system.cpu.itb.read_misses                          0                       # DTB read misses
system.cpu.itb.read_acv                             0                       # DTB read access violations
system.cpu.itb.read_accesses                        0                       # DTB read accesses
system.cpu.itb.write_hits                           0                       # DTB write hits
system.cpu.itb.write_misses                         0                       # DTB write misses
system.cpu.itb.write_acv                            0                       # DTB write access violations
system.cpu.itb.write_accesses                       0                       # DTB write accesses
system.cpu.itb.data_hits                            0                       # DTB hits
system.cpu.itb.data_misses                          0                       # DTB misses
system.cpu.itb.data_acv                             0                       # DTB access violations
system.cpu.itb.data_accesses                        0                       # DTB accesses
system.cpu.workload.num_syscalls                    0                       # Number of system calls
system.cpu.pwrStateResidencyTicks::ON    1982273922819                       # Cumulative time (in ticks) in various power states
system.cpu.numCycles                             1087                       # number of cpu cycles simulated
system.cpu.numWorkItemsStarted                      0                       # number of work items this cpu started
system.cpu.numWorkItemsCompleted                    0                       # number of work items this cpu completed
system.cpu.fetch.icacheStallCycles                 64                       # Number of cycles fetch is stalled on an Icache miss
system.cpu.fetch.Insts                             51                       # Number of instructions fetch has processed
system.cpu.fetch.Branches                           2                       # Number of branches that fetch encountered
system.cpu.fetch.Cycles                             7                       # Number of cycles fetch has run and was not squashing or blocked
system.cpu.fetch.SquashCycles                       5                       # Number of cycles fetch has spent squashing
system.cpu.fetch.PendingDrainCycles                10                       # Number of cycles fetch has spent waiting on pipes to drain
system.cpu.fetch.CacheLines                         7                       # Number of cache lines fetched
system.cpu.fetch.IcacheSquashes                     3                       # Number of outstanding Icache misses that were squashed
system.cpu.fetch.rateDist::samples                 83                       # Number of instructions fetched each cycle (Total)
system.cpu.fetch.rateDist::mean              0.614458                       # Number of instructions fetched each cycle (Total)
system.cpu.fetch.rateDist::stdev             2.076767                       # Number of instructions fetched each cycle (Total)
system.cpu.fetch.rateDist::underflows               0      0.00%      0.00% # Number of instructions fetched each cycle (Total)
system.cpu.fetch.rateDist::0                       76     91.57%     91.57% # Number of instructions fetched each cycle (Total)
system.cpu.fetch.rateDist::1                        0      0.00%     91.57% # Number of instructions fetched each cycle (Total)
system.cpu.fetch.rateDist::2                        0      0.00%     91.57% # Number of instructions fetched each cycle (Total)
system.cpu.fetch.rateDist::3                        0      0.00%     91.57% # Number of instructions fetched each cycle (Total)
[...]
system.switch_cpus_1.iq.int_inst_queue_writes    142177609                       # Number of integer instruction queue writes
system.switch_cpus_1.iq.int_inst_queue_wakeup_accesses    140179111                       # Number of integer instruction queue wakeup accesses
system.switch_cpus_1.iq.fp_inst_queue_reads    151254223                       # Number of floating instruction queue reads
system.switch_cpus_1.iq.fp_inst_queue_writes     62655433                       # Number of floating instruction queue writes
system.switch_cpus_1.iq.fp_inst_queue_wakeup_accesses     61348914                       # Number of floating instruction queue wakeup accesses
system.switch_cpus_1.iq.int_alu_accesses    154427639                       # Number of integer alu accesses
system.switch_cpus_1.iq.fp_alu_accesses      81458526                       # Number of floating point alu accesses
system.switch_cpus_1.iew.lsq.thread0.forwLoads      1454936                       # Number of loads that had data forwarded from stores
system.switch_cpus_1.iew.lsq.thread0.invAddrLoads            0                       # Number of loads ignored due to an invalid address
system.switch_cpus_1.iew.lsq.thread0.squashedLoads       801992                       # Number of loads squashed
system.switch_cpus_1.iew.lsq.thread0.ignoredResponses            0                       # Number of memory responses ignored because the instruction is squashed
system.switch_cpus_1.iew.lsq.thread0.memOrderViolation          367                       # Number of memory ordering violations
system.switch_cpus_1.iew.lsq.thread0.squashedStores       151590                       # Number of stores squashed
system.switch_cpus_1.iew.lsq.thread0.invAddrSwpfs            0                       # Number of software prefetches ignored due to an invalid address
system.switch_cpus_1.iew.lsq.thread0.blockedLoads            0                       # Number of blocked loads due to partial load-store forwarding
system.switch_cpus_1.iew.lsq.thread0.rescheduledLoads            0                       # Number of loads that were rescheduled
system.switch_cpus_1.iew.lsq.thread0.cacheBlocked     12335949                       # Number of times an access to memory failed due to the cache being blocked
system.switch_cpus_1.iew.iewIdleCycles              0                       # Number of cycles IEW is idle
system.switch_cpus_1.iew.iewSquashCycles        63508                       # Number of cycles IEW is squashing
system.switch_cpus_1.iew.iewBlockCycles      24189426                       # Number of cycles IEW is blocking
system.switch_cpus_1.iew.iewUnblockCycles     35057303                       # Number of cycles IEW is unblocking
system.switch_cpus_1.iew.iewDispatchedInsts    202484251                       # Number of instructions dispatched to IQ
system.switch_cpus_1.iew.iewDispSquashedInsts        65326                       # Number of squashed instructions skipped by dispatch
system.switch_cpus_1.iew.iewDispLoadInsts     68396391                       # Number of dispatched load instructions
system.switch_cpus_1.iew.iewDispStoreInsts     10464071                       # Number of dispatched store instructions
system.switch_cpus_1.iew.iewDispNonSpecInsts           86                       # Number of dispatched non-speculative instructions
system.switch_cpus_1.iew.iewIQFullEvents       231862                       # Number of times the IQ has become full, causing a stall
system.switch_cpus_1.iew.iewLSQFullEvents     34574045                       # Number of times the LSQ has become full, causing a stall
system.switch_cpus_1.iew.memOrderViolationEvents          367                       # Number of memory order violations
system.switch_cpus_1.iew.predictedTakenIncorrect        47590                       # Number of branches that were predicted taken incorrectly
system.switch_cpus_1.iew.predictedNotTakenIncorrect          433                       # Number of branches that were predicted not taken incorrectly
system.switch_cpus_1.iew.branchMispredicts        48023                       # Number of branch mispredicts detected at execute
system.switch_cpus_1.iew.iewExecutedInsts    213760402                       # Number of executed instructions
system.switch_cpus_1.iew.iewExecLoadInsts     80258383                       # Number of load instructions executed
system.switch_cpus_1.iew.iewExecSquashedInsts       113977                       # Number of squashed instructions skipped in execute
system.switch_cpus_1.iew.exec_swp                   0                       # number of swp insts executed
system.switch_cpus_1.iew.exec_nop               67870                       # number of nop insts executed
system.switch_cpus_1.iew.exec_refs           90612735                       # number of memory reference insts executed
system.switch_cpus_1.iew.exec_branches        5549857                       # Number of branches executed
system.switch_cpus_1.iew.exec_stores         10354352                       # Number of stores executed
system.switch_cpus_1.iew.exec_rate           0.761638                       # Inst execution rate
system.switch_cpus_1.iew.wb_sent            201662778                       # cumulative count of insts sent to commit
system.switch_cpus_1.iew.wb_count           201528025                       # cumulative count of insts written-back
system.switch_cpus_1.iew.wb_producers       139542813                       # num instructions producing a value
system.switch_cpus_1.iew.wb_consumers       153144028                       # num instructions consuming a value
system.switch_cpus_1.iew.wb_rate             0.718054                       # insts written-back per cycle
system.switch_cpus_1.iew.wb_fanout           0.911187                       # average fanout of values written-back
system.switch_cpus_1.commit.commitSquashedInsts      2359687                       # The number of squashed insts skipped by commit
system.switch_cpus_1.commit.commitNonSpecStalls          144                       # The number of times commit has been forced to stall to communicate backwards
system.switch_cpus_1.commit.branchMispredicts        47874                       # The number of times a branch was mispredicted
system.switch_cpus_1.commit.committed_per_cycle::samples    280324292                       # Number of insts commited each cycle
system.switch_cpus_1.commit.committed_per_cycle::mean     0.713669                       # Number of insts commited each cycle
system.switch_cpus_1.commit.committed_per_cycle::stdev     2.135498                       # Number of insts commited each cycle
system.switch_cpus_1.commit.committed_per_cycle::underflows            0      0.00%      0.00% # Number of insts commited each cycle
system.switch_cpus_1.commit.committed_per_cycle::0    244460276     87.21%     87.21% # Number of insts commited each cycle
system.switch_cpus_1.commit.committed_per_cycle::1      7485818      2.67%     89.88% # Number of insts commited each cycle
system.switch_cpus_1.commit.committed_per_cycle::2      1491038      0.53%     90.41% # Number of insts commited each cycle
system.switch_cpus_1.commit.committed_per_cycle::3      1593472      0.57%     90.98% # Number of insts commited each cycle
system.switch_cpus_1.commit.committed_per_cycle::4      2169286      0.77%     91.75% # Number of insts commited each cycle
system.switch_cpus_1.commit.committed_per_cycle::5      1493277      0.53%     92.28% # Number of insts commited each cycle
system.switch_cpus_1.commit.committed_per_cycle::6      1331076      0.47%     92.76% # Number of insts commited each cycle
system.switch_cpus_1.commit.committed_per_cycle::7      1720016      0.61%     93.37% # Number of insts commited each cycle
system.switch_cpus_1.commit.committed_per_cycle::8     18580033      6.63%    100.00% # Number of insts commited each cycle
system.switch_cpus_1.commit.committed_per_cycle::overflows            0      0.00%    100.00% # Number of insts commited each cycle
system.switch_cpus_1.commit.committed_per_cycle::min_value            0                       # Number of insts commited each cycle
system.switch_cpus_1.commit.committed_per_cycle::max_value            8                       # Number of insts commited each cycle
system.switch_cpus_1.commit.committed_per_cycle::total    280324292                       # Number of insts commited each cycle
system.switch_cpus_1.commit.committedInsts    200058671                       # Number of instructions committed
system.switch_cpus_1.commit.committedOps    200058671                       # Number of ops (including micro ops) committed
system.switch_cpus_1.commit.swp_count               0                       # Number of s/w prefetches committed
system.switch_cpus_1.commit.refs             77906848                       # Number of memory references committed
system.switch_cpus_1.commit.loads            67594371                       # Number of loads committed
system.switch_cpus_1.commit.membars                72                       # Number of memory barriers committed
system.switch_cpus_1.commit.branches          5447366                       # Number of branches committed
system.switch_cpus_1.commit.fp_insts         61032861                       # Number of committed floating point instructions.
system.switch_cpus_1.commit.int_insts       169602469                       # Number of committed integer instructions.
system.switch_cpus_1.commit.function_calls           74                       # Number of function calls committed.
system.switch_cpus_1.commit.op_class_0::No_OpClass        58667      0.03%      0.03% # Class of committed instruction
system.switch_cpus_1.commit.op_class_0::IntAlu     69024585     34.50%     34.53% # Class of committed instruction
system.switch_cpus_1.commit.op_class_0::IntMult     22692429     11.34%     45.87% # Class of committed instruction
system.switch_cpus_1.commit.op_class_0::IntDiv            0      0.00%     45.87% # Class of committed instruction
system.switch_cpus_1.commit.op_class_0::FloatAdd     15421069      7.71%     53.58% # Class of committed instruction
system.switch_cpus_1.commit.op_class_0::FloatCmp            0      0.00%     53.58% # Class of committed instruction
system.switch_cpus_1.commit.op_class_0::FloatCvt         3010      0.00%     53.58% # Class of committed instruction
system.switch_cpus_1.commit.op_class_0::FloatMult     13619855      6.81%     60.39% # Class of committed instruction
system.switch_cpus_1.commit.op_class_0::FloatMultAcc            0      0.00%     60.39% # Class of committed instruction
system.switch_cpus_1.commit.op_class_0::FloatDiv      1151536      0.58%     60.97% # Class of committed instruction
system.switch_cpus_1.commit.op_class_0::FloatMisc            0      0.00%     60.97% # Class of committed instruction
system.switch_cpus_1.commit.op_class_0::FloatSqrt       180600      0.09%     61.06% # Class of committed instruction
system.switch_cpus_1.commit.op_class_0::SimdAdd            0      0.00%     61.06% # Class of committed instruction
system.switch_cpus_1.commit.op_class_0::SimdAddAcc            0      0.00%     61.06% # Class of committed instruction
system.switch_cpus_1.commit.op_class_0::SimdAlu            0      0.00%     61.06% # Class of committed instruction
system.switch_cpus_1.commit.op_class_0::SimdCmp            0      0.00%     61.06% # Class of committed instruction
system.switch_cpus_1.commit.op_class_0::SimdCvt            0      0.00%     61.06% # Class of committed instruction
system.switch_cpus_1.commit.op_class_0::SimdMisc            0      0.00%     61.06% # Class of committed instruction
system.switch_cpus_1.commit.op_class_0::SimdMult            0      0.00%     61.06% # Class of committed instruction
system.switch_cpus_1.commit.op_class_0::SimdMultAcc            0      0.00%     61.06% # Class of committed instruction
system.switch_cpus_1.commit.op_class_0::SimdShift            0      0.00%     61.06% # Class of committed instruction
system.switch_cpus_1.commit.op_class_0::SimdShiftAcc            0      0.00%     61.06% # Class of committed instruction
system.switch_cpus_1.commit.op_class_0::SimdSqrt            0      0.00%     61.06% # Class of committed instruction
system.switch_cpus_1.commit.op_class_0::SimdFloatAdd            0      0.00%     61.06% # Class of committed instruction
system.switch_cpus_1.commit.op_class_0::SimdFloatAlu            0      0.00%     61.06% # Class of committed instruction
system.switch_cpus_1.commit.op_class_0::SimdFloatCmp            0      0.00%     61.06% # Class of committed instruction
system.switch_cpus_1.commit.op_class_0::SimdFloatCvt            0      0.00%     61.06% # Class of committed instruction
system.switch_cpus_1.commit.op_class_0::SimdFloatDiv            0      0.00%     61.06% # Class of committed instruction
system.switch_cpus_1.commit.op_class_0::SimdFloatMisc            0      0.00%     61.06% # Class of committed instruction
system.switch_cpus_1.commit.op_class_0::SimdFloatMult            0      0.00%     61.06% # Class of committed instruction
system.switch_cpus_1.commit.op_class_0::SimdFloatMultAcc            0      0.00%     61.06% # Class of committed instruction
system.switch_cpus_1.commit.op_class_0::SimdFloatSqrt            0      0.00%     61.06% # Class of committed instruction
system.switch_cpus_1.commit.op_class_0::MemRead     44149715     22.07%     83.13% # Class of committed instruction
system.switch_cpus_1.commit.op_class_0::MemWrite      3100414      1.55%     84.68% # Class of committed instruction
system.switch_cpus_1.commit.op_class_0::FloatMemRead     23444728     11.72%     96.40% # Class of committed instruction
system.switch_cpus_1.commit.op_class_0::FloatMemWrite      7212063      3.60%    100.00% # Class of committed instruction
system.switch_cpus_1.commit.op_class_0::IprAccess            0      0.00%    100.00% # Class of committed instruction
system.switch_cpus_1.commit.op_class_0::InstPrefetch            0      0.00%    100.00% # Class of committed instruction
system.switch_cpus_1.commit.op_class_0::total    200058671                       # Class of committed instruction
system.switch_cpus_1.commit.bw_lim_events     18580033                       # number cycles where commit BW limit reached
system.switch_cpus_1.rob.rob_reads          463963444                       # The number of ROB reads
system.switch_cpus_1.rob.rob_writes         405156006                       # The number of ROB writes
system.switch_cpus_1.timesIdled                   112                       # Number of times that the entire CPU went into an idle state and unscheduled itself
system.switch_cpus_1.idleCycles                 15193                       # Total number of cycles that the CPU has spent unscheduled due to idling
system.switch_cpus_1.committedInsts         200000004                       # Number of Instructions Simulated
system.switch_cpus_1.committedOps           200000004                       # Number of Ops (including micro ops) Simulated
system.switch_cpus_1.cpi                     1.403293                       # CPI: Cycles Per Instruction
system.switch_cpus_1.cpi_total               1.403293                       # CPI: Total CPI of All Threads
system.switch_cpus_1.ipc                     0.712609                       # IPC: Instructions Per Cycle
system.switch_cpus_1.ipc_total               0.712609                       # IPC: Total IPC of All Threads
system.switch_cpus_1.int_regfile_reads      260295360                       # number of integer regfile reads
system.switch_cpus_1.int_regfile_writes     131550565                       # number of integer regfile writes
system.switch_cpus_1.fp_regfile_reads        68054913                       # number of floating regfile reads
system.switch_cpus_1.fp_regfile_writes       54127829                       # number of floating regfile writes
system.switch_cpus_1.misc_regfile_reads           162                       # number of misc regfile reads
system.switch_cpus_1.misc_regfile_writes          144                       # number of misc regfile writes
system.tol3bus.snoop_filter.tot_requests     21501562                       # Total number of requests made to the snoop filter.
system.tol3bus.snoop_filter.hit_single_requests     10748474                       # Number of requests hitting in the snoop filter with a single holder of the requested data.
system.tol3bus.snoop_filter.hit_multi_requests            0                       # Number of requests hitting in the snoop filter with multiple (>1) holders of the requested data.
system.tol3bus.snoop_filter.tot_snoops           2207                       # Total number of snoops made to the snoop filter.
system.tol3bus.snoop_filter.hit_single_snoops         2207                       # Number of snoops hitting in the snoop filter with a single holder of the requested data.
system.tol3bus.snoop_filter.hit_multi_snoops            0                       # Number of snoops hitting in the snoop filter with multiple (>1) holders of the requested data.
system.tol3bus.pwrStateResidencyTicks::UNDEFINED 75252427723521                       # Cumulative time (in ticks) in various power states
system.tol3bus.trans_dist::ReadResp           8306218                       # Transaction distribution
system.tol3bus.trans_dist::WritebackDirty      6004137                       # Transaction distribution
system.tol3bus.trans_dist::CleanEvict        13230706                       # Transaction distribution
system.tol3bus.trans_dist::ReadExReq          2446870                       # Transaction distribution
system.tol3bus.trans_dist::ReadExResp         2446868                       # Transaction distribution
system.tol3bus.trans_dist::ReadSharedReq      8306218                       # Transaction distribution
system.tol3bus.pkt_count_system.cpu.l2.mem_side::system.l3.cpu_side     32254648                       # Packet count per connected master and slave (bytes)
system.tol3bus.pkt_size_system.cpu.l2.mem_side::system.l3.cpu_side    898901696                       # Cumulative packet size per connected master and slave (bytes)
system.tol3bus.snoops                         8486369                       # Total snoops (count)
system.tol3bus.snoopTraffic                 173560576                       # Total snoop traffic (bytes)
system.tol3bus.snoop_fanout::samples         19239457                       # Request fanout histogram
system.tol3bus.snoop_fanout::mean            0.000115                       # Request fanout histogram
system.tol3bus.snoop_fanout::stdev           0.010710                       # Request fanout histogram
system.tol3bus.snoop_fanout::underflows             0      0.00%      0.00% # Request fanout histogram
system.tol3bus.snoop_fanout::0               19237250     99.99%     99.99% # Request fanout histogram
system.tol3bus.snoop_fanout::1                   2207      0.01%    100.00% # Request fanout histogram
system.tol3bus.snoop_fanout::overflows              0      0.00%    100.00% # Request fanout histogram
system.tol3bus.snoop_fanout::min_value              0                       # Request fanout histogram
system.tol3bus.snoop_fanout::max_value              1                       # Request fanout histogram
system.tol3bus.snoop_fanout::total           19239457                       # Request fanout histogram
system.tol3bus.reqLayer0.occupancy         8256340395                       # Layer occupancy (ticks)
system.tol3bus.reqLayer0.utilization              0.4                       # Layer utilization (%)
system.tol3bus.respLayer0.occupancy        7161555276                       # Layer occupancy (ticks)
system.tol3bus.respLayer0.utilization             0.4                       # Layer utilization (%)

---------- End Simulation Statistics   ----------
