
---------- Begin Simulation Statistics ----------
sim_seconds                                  1.780392                       # Number of seconds simulated
sim_ticks                                1780392042783                       # Number of ticks simulated
final_tick                               75050545843485                       # Number of ticks from beginning of simulation (restored from checkpoints and never reset)
sim_freq                                 1000000000000                       # Frequency of simulated ticks
host_inst_rate                                 340378                       # Simulator instruction rate (inst/s)
host_op_rate                                   340378                       # Simulator op (including micro ops) rate (op/s)
host_tick_rate                              505005238                       # Simulator tick rate (ticks/s)
host_mem_usage                                2403780                       # Number of bytes of host memory used
host_seconds                                  3525.49                       # Real time elapsed on the host
sim_insts                                  1200000010                       # Number of instructions simulated
sim_ops                                    1200000010                       # Number of ops (including micro ops) simulated
system.voltage_domain.voltage                       1                       # Voltage in Volts
system.clk_domain.clock                          1000                       # Clock period in ticks
system.mem_ctrls0.pwrStateResidencyTicks::UNDEFINED 75050545843485                       # Cumulative time (in ticks) in various power states
system.mem_ctrls0.bytes_read::cpu.inst            128                       # Number of bytes read from this memory
system.mem_ctrls0.bytes_read::cpu.data            192                       # Number of bytes read from this memory
system.mem_ctrls0.bytes_read::switch_cpus.inst        43968                       # Number of bytes read from this memory
system.mem_ctrls0.bytes_read::switch_cpus.data    233410688                       # Number of bytes read from this memory
system.mem_ctrls0.bytes_read::switch_cpus_1.inst         3392                       # Number of bytes read from this memory
system.mem_ctrls0.bytes_read::switch_cpus_1.data     40909504                       # Number of bytes read from this memory
system.mem_ctrls0.bytes_read::total         274367872                       # Number of bytes read from this memory
system.mem_ctrls0.bytes_inst_read::cpu.inst          128                       # Number of instructions bytes read from this memory
system.mem_ctrls0.bytes_inst_read::switch_cpus.inst        43968                       # Number of instructions bytes read from this memory
system.mem_ctrls0.bytes_inst_read::switch_cpus_1.inst         3392                       # Number of instructions bytes read from this memory
system.mem_ctrls0.bytes_inst_read::total        47488                       # Number of instructions bytes read from this memory
system.mem_ctrls0.bytes_written::writebacks     87898624                       # Number of bytes written to this memory
system.mem_ctrls0.bytes_written::total       87898624                       # Number of bytes written to this memory
system.mem_ctrls0.num_reads::cpu.inst               2                       # Number of read requests responded to by this memory
system.mem_ctrls0.num_reads::cpu.data               3                       # Number of read requests responded to by this memory
system.mem_ctrls0.num_reads::switch_cpus.inst          687                       # Number of read requests responded to by this memory
system.mem_ctrls0.num_reads::switch_cpus.data      3647042                       # Number of read requests responded to by this memory
system.mem_ctrls0.num_reads::switch_cpus_1.inst           53                       # Number of read requests responded to by this memory
system.mem_ctrls0.num_reads::switch_cpus_1.data       639211                       # Number of read requests responded to by this memory
system.mem_ctrls0.num_reads::total            4286998                       # Number of read requests responded to by this memory
system.mem_ctrls0.num_writes::writebacks      1373416                       # Number of write requests responded to by this memory
system.mem_ctrls0.num_writes::total           1373416                       # Number of write requests responded to by this memory
system.mem_ctrls0.bw_read::cpu.inst                72                       # Total read bandwidth from this memory (bytes/s)
system.mem_ctrls0.bw_read::cpu.data               108                       # Total read bandwidth from this memory (bytes/s)
system.mem_ctrls0.bw_read::switch_cpus.inst        24696                       # Total read bandwidth from this memory (bytes/s)
system.mem_ctrls0.bw_read::switch_cpus.data    131100725                       # Total read bandwidth from this memory (bytes/s)
system.mem_ctrls0.bw_read::switch_cpus_1.inst         1905                       # Total read bandwidth from this memory (bytes/s)
system.mem_ctrls0.bw_read::switch_cpus_1.data     22977807                       # Total read bandwidth from this memory (bytes/s)
system.mem_ctrls0.bw_read::total            154105312                       # Total read bandwidth from this memory (bytes/s)
system.mem_ctrls0.bw_inst_read::cpu.inst           72                       # Instruction read bandwidth from this memory (bytes/s)
system.mem_ctrls0.bw_inst_read::switch_cpus.inst        24696                       # Instruction read bandwidth from this memory (bytes/s)
system.mem_ctrls0.bw_inst_read::switch_cpus_1.inst         1905                       # Instruction read bandwidth from this memory (bytes/s)
system.mem_ctrls0.bw_inst_read::total           26673                       # Instruction read bandwidth from this memory (bytes/s)
system.mem_ctrls0.bw_write::writebacks       49370376                       # Write bandwidth from this memory (bytes/s)
system.mem_ctrls0.bw_write::total            49370376                       # Write bandwidth from this memory (bytes/s)
system.mem_ctrls0.bw_total::writebacks       49370376                       # Total bandwidth to/from this memory (bytes/s)
system.mem_ctrls0.bw_total::cpu.inst               72                       # Total bandwidth to/from this memory (bytes/s)
system.mem_ctrls0.bw_total::cpu.data              108                       # Total bandwidth to/from this memory (bytes/s)
system.mem_ctrls0.bw_total::switch_cpus.inst        24696                       # Total bandwidth to/from this memory (bytes/s)
system.mem_ctrls0.bw_total::switch_cpus.data    131100725                       # Total bandwidth to/from this memory (bytes/s)
system.mem_ctrls0.bw_total::switch_cpus_1.inst         1905                       # Total bandwidth to/from this memory (bytes/s)
system.mem_ctrls0.bw_total::switch_cpus_1.data     22977807                       # Total bandwidth to/from this memory (bytes/s)
system.mem_ctrls0.bw_total::total           203475688                       # Total bandwidth to/from this memory (bytes/s)
system.mem_ctrls0.readReqs                    4287000                       # Number of read requests accepted
system.mem_ctrls0.writeReqs                   1373416                       # Number of write requests accepted
system.mem_ctrls0.readBursts                  4287000                       # Number of DRAM read bursts, including those serviced by the write queue
system.mem_ctrls0.writeBursts                 1373416                       # Number of DRAM write bursts, including those merged in the write queue
system.mem_ctrls0.bytesReadDRAM             274346304                       # Total number of bytes read from DRAM
system.mem_ctrls0.bytesReadWrQ                  21696                       # Total number of bytes read from write queue
system.mem_ctrls0.bytesWritten               87896640                       # Total number of bytes written to DRAM
system.mem_ctrls0.bytesReadSys              274368000                       # Total read bytes from the system interface side
system.mem_ctrls0.bytesWrittenSys            87898624                       # Total written bytes from the system interface side
system.mem_ctrls0.servicedByWrQ                   339                       # Number of DRAM read bursts serviced by the write queue
system.mem_ctrls0.mergedWrBursts                    0                       # Number of DRAM write bursts merged with an existing one
system.mem_ctrls0.neitherReadNorWriteReqs            0                       # Number of requests that are neither read nor write
system.mem_ctrls0.perBankRdBursts::0           273974                       # Per bank write bursts
system.mem_ctrls0.perBankRdBursts::1           270883                       # Per bank write bursts
system.mem_ctrls0.perBankRdBursts::2           267898                       # Per bank write bursts
system.mem_ctrls0.perBankRdBursts::3           268020                       # Per bank write bursts
system.mem_ctrls0.perBankRdBursts::4           267379                       # Per bank write bursts
system.mem_ctrls0.perBankRdBursts::5           269273                       # Per bank write bursts
system.mem_ctrls0.perBankRdBursts::6           269251                       # Per bank write bursts
system.mem_ctrls0.perBankRdBursts::7           270965                       # Per bank write bursts
system.mem_ctrls0.perBankRdBursts::8           272539                       # Per bank write bursts
system.mem_ctrls0.perBankRdBursts::9           269446                       # Per bank write bursts
system.mem_ctrls0.perBankRdBursts::10          263943                       # Per bank write bursts
system.mem_ctrls0.perBankRdBursts::11          260435                       # Per bank write bursts
system.mem_ctrls0.perBankRdBursts::12          259963                       # Per bank write bursts
system.mem_ctrls0.perBankRdBursts::13          263725                       # Per bank write bursts
system.mem_ctrls0.perBankRdBursts::14          268985                       # Per bank write bursts
system.mem_ctrls0.perBankRdBursts::15          269982                       # Per bank write bursts
system.mem_ctrls0.perBankWrBursts::0            88500                       # Per bank write bursts
system.mem_ctrls0.perBankWrBursts::1            87026                       # Per bank write bursts
system.mem_ctrls0.perBankWrBursts::2            86474                       # Per bank write bursts
system.mem_ctrls0.perBankWrBursts::3            87395                       # Per bank write bursts
system.mem_ctrls0.perBankWrBursts::4            87810                       # Per bank write bursts
system.mem_ctrls0.perBankWrBursts::5            88046                       # Per bank write bursts
system.mem_ctrls0.perBankWrBursts::6            85420                       # Per bank write bursts
system.mem_ctrls0.perBankWrBursts::7            84841                       # Per bank write bursts
system.mem_ctrls0.perBankWrBursts::8            85206                       # Per bank write bursts
system.mem_ctrls0.perBankWrBursts::9            85417                       # Per bank write bursts
system.mem_ctrls0.perBankWrBursts::10           84668                       # Per bank write bursts
system.mem_ctrls0.perBankWrBursts::11           83372                       # Per bank write bursts
system.mem_ctrls0.perBankWrBursts::12           82717                       # Per bank write bursts
system.mem_ctrls0.perBankWrBursts::13           83782                       # Per bank write bursts
system.mem_ctrls0.perBankWrBursts::14           86160                       # Per bank write bursts
system.mem_ctrls0.perBankWrBursts::15           86551                       # Per bank write bursts
system.mem_ctrls0.numRdRetry                        0                       # Number of times read queue was full causing retry
system.mem_ctrls0.numWrRetry                        0                       # Number of times write queue was full causing retry
system.mem_ctrls0.totGap                 1780391928408                       # Total gap between requests
system.mem_ctrls0.readPktSize::0                    0                       # Read request sizes (log2)
system.mem_ctrls0.readPktSize::1                    0                       # Read request sizes (log2)
system.mem_ctrls0.readPktSize::2                    0                       # Read request sizes (log2)
system.mem_ctrls0.readPktSize::3                    0                       # Read request sizes (log2)
system.mem_ctrls0.readPktSize::4                    0                       # Read request sizes (log2)
system.mem_ctrls0.readPktSize::5                    0                       # Read request sizes (log2)
system.mem_ctrls0.readPktSize::6              4287000                       # Read request sizes (log2)
system.mem_ctrls0.writePktSize::0                   0                       # Write request sizes (log2)
system.mem_ctrls0.writePktSize::1                   0                       # Write request sizes (log2)
system.mem_ctrls0.writePktSize::2                   0                       # Write request sizes (log2)
system.mem_ctrls0.writePktSize::3                   0                       # Write request sizes (log2)
system.mem_ctrls0.writePktSize::4                   0                       # Write request sizes (log2)
system.mem_ctrls0.writePktSize::5                   0                       # Write request sizes (log2)
system.mem_ctrls0.writePktSize::6             1373416                       # Write request sizes (log2)
system.mem_ctrls0.rdQLenPdf::0                4089287                       # What read queue length does an incoming req see
system.mem_ctrls0.rdQLenPdf::1                 157178                       # What read queue length does an incoming req see
system.mem_ctrls0.rdQLenPdf::2                  37365                       # What read queue length does an incoming req see
system.mem_ctrls0.rdQLenPdf::3                   2831                       # What read queue length does an incoming req see
system.mem_ctrls0.rdQLenPdf::4                      0                       # What read queue length does an incoming req see
system.mem_ctrls0.rdQLenPdf::5                      0                       # What read queue length does an incoming req see
system.mem_ctrls0.rdQLenPdf::6                      0                       # What read queue length does an incoming req see
system.mem_ctrls0.rdQLenPdf::7                      0                       # What read queue length does an incoming req see
system.mem_ctrls0.rdQLenPdf::8                      0                       # What read queue length does an incoming req see
system.mem_ctrls0.rdQLenPdf::9                      0                       # What read queue length does an incoming req see
system.mem_ctrls0.rdQLenPdf::10                     0                       # What read queue length does an incoming req see
system.mem_ctrls0.rdQLenPdf::11                     0                       # What read queue length does an incoming req see
system.mem_ctrls0.rdQLenPdf::12                     0                       # What read queue length does an incoming req see
system.mem_ctrls0.rdQLenPdf::13                     0                       # What read queue length does an incoming req see
system.mem_ctrls0.rdQLenPdf::14                     0                       # What read queue length does an incoming req see
system.mem_ctrls0.rdQLenPdf::15                     0                       # What read queue length does an incoming req see
system.mem_ctrls0.rdQLenPdf::16                     0                       # What read queue length does an incoming req see
system.mem_ctrls0.rdQLenPdf::17                     0                       # What read queue length does an incoming req see
system.mem_ctrls0.rdQLenPdf::18                     0                       # What read queue length does an incoming req see
system.mem_ctrls0.rdQLenPdf::19                     0                       # What read queue length does an incoming req see
system.mem_ctrls0.rdQLenPdf::20                     0                       # What read queue length does an incoming req see
system.mem_ctrls0.rdQLenPdf::21                     0                       # What read queue length does an incoming req see
system.mem_ctrls0.rdQLenPdf::22                     0                       # What read queue length does an incoming req see
system.mem_ctrls0.rdQLenPdf::23                     0                       # What read queue length does an incoming req see
system.mem_ctrls0.rdQLenPdf::24                     0                       # What read queue length does an incoming req see
system.mem_ctrls0.rdQLenPdf::25                     0                       # What read queue length does an incoming req see
system.mem_ctrls0.rdQLenPdf::26                     0                       # What read queue length does an incoming req see
system.mem_ctrls0.rdQLenPdf::27                     0                       # What read queue length does an incoming req see
system.mem_ctrls0.rdQLenPdf::28                     0                       # What read queue length does an incoming req see
system.mem_ctrls0.rdQLenPdf::29                     0                       # What read queue length does an incoming req see
system.mem_ctrls0.rdQLenPdf::30                     0                       # What read queue length does an incoming req see
system.mem_ctrls0.rdQLenPdf::31                     0                       # What read queue length does an incoming req see
system.mem_ctrls0.wrQLenPdf::0                      2                       # What write queue length does an incoming req see
system.mem_ctrls0.wrQLenPdf::1                      2                       # What write queue length does an incoming req see
system.mem_ctrls0.wrQLenPdf::2                      2                       # What write queue length does an incoming req see
system.mem_ctrls0.wrQLenPdf::3                      2                       # What write queue length does an incoming req see
system.mem_ctrls0.wrQLenPdf::4                      2                       # What write queue length does an incoming req see
system.mem_ctrls0.wrQLenPdf::5                      2                       # What write queue length does an incoming req see
system.mem_ctrls0.wrQLenPdf::6                      2                       # What write queue length does an incoming req see
system.mem_ctrls0.wrQLenPdf::7                      2                       # What write queue length does an incoming req see
system.mem_ctrls0.wrQLenPdf::8                      2                       # What write queue length does an incoming req see
system.mem_ctrls0.wrQLenPdf::9                      2                       # What write queue length does an incoming req see
system.mem_ctrls0.wrQLenPdf::10                     2                       # What write queue length does an incoming req see
system.mem_ctrls0.wrQLenPdf::11                     2                       # What write queue length does an incoming req see
system.mem_ctrls0.wrQLenPdf::12                     2                       # What write queue length does an incoming req see
system.mem_ctrls0.wrQLenPdf::13                     2                       # What write queue length does an incoming req see
system.mem_ctrls0.wrQLenPdf::14                     2                       # What write queue length does an incoming req see
system.mem_ctrls0.wrQLenPdf::15                 40996                       # What write queue length does an incoming req see
system.mem_ctrls0.wrQLenPdf::16                 42832                       # What write queue length does an incoming req see
system.mem_ctrls0.wrQLenPdf::17                 75773                       # What write queue length does an incoming req see
system.mem_ctrls0.wrQLenPdf::18                 79935                       # What write queue length does an incoming req see
system.mem_ctrls0.wrQLenPdf::19                 80780                       # What write queue length does an incoming req see
system.mem_ctrls0.wrQLenPdf::20                 80908                       # What write queue length does an incoming req see
system.mem_ctrls0.wrQLenPdf::21                 80951                       # What write queue length does an incoming req see
system.mem_ctrls0.wrQLenPdf::22                 80951                       # What write queue length does an incoming req see
system.mem_ctrls0.wrQLenPdf::23                 80949                       # What write queue length does an incoming req see
system.mem_ctrls0.wrQLenPdf::24                 80992                       # What write queue length does an incoming req see
system.mem_ctrls0.wrQLenPdf::25                 81016                       # What write queue length does an incoming req see
system.mem_ctrls0.wrQLenPdf::26                 81008                       # What write queue length does an incoming req see
system.mem_ctrls0.wrQLenPdf::27                 81047                       # What write queue length does an incoming req see
system.mem_ctrls0.wrQLenPdf::28                 81374                       # What write queue length does an incoming req see
system.mem_ctrls0.wrQLenPdf::29                 81698                       # What write queue length does an incoming req see
system.mem_ctrls0.wrQLenPdf::30                 81065                       # What write queue length does an incoming req see
system.mem_ctrls0.wrQLenPdf::31                 80555                       # What write queue length does an incoming req see
system.mem_ctrls0.wrQLenPdf::32                 80437                       # What write queue length does an incoming req see
system.mem_ctrls0.wrQLenPdf::33                   101                       # What write queue length does an incoming req see
system.mem_ctrls0.wrQLenPdf::34                    16                       # What write queue length does an incoming req see
system.mem_ctrls0.wrQLenPdf::35                     2                       # What write queue length does an incoming req see
system.mem_ctrls0.wrQLenPdf::36                     0                       # What write queue length does an incoming req see
system.mem_ctrls0.wrQLenPdf::37                     0                       # What write queue length does an incoming req see
system.mem_ctrls0.wrQLenPdf::38                     0                       # What write queue length does an incoming req see
system.mem_ctrls0.wrQLenPdf::39                     0                       # What write queue length does an incoming req see
system.mem_ctrls0.wrQLenPdf::40                     0                       # What write queue length does an incoming req see
system.mem_ctrls0.wrQLenPdf::41                     0                       # What write queue length does an incoming req see
system.mem_ctrls0.wrQLenPdf::42                     0                       # What write queue length does an incoming req see
system.mem_ctrls0.wrQLenPdf::43                     0                       # What write queue length does an incoming req see
system.mem_ctrls0.wrQLenPdf::44                     0                       # What write queue length does an incoming req see
system.mem_ctrls0.wrQLenPdf::45                     0                       # What write queue length does an incoming req see
system.mem_ctrls0.wrQLenPdf::46                     0                       # What write queue length does an incoming req see
system.mem_ctrls0.wrQLenPdf::47                     0                       # What write queue length does an incoming req see
system.mem_ctrls0.wrQLenPdf::48                     0                       # What write queue length does an incoming req see
system.mem_ctrls0.wrQLenPdf::49                     0                       # What write queue length does an incoming req see
system.mem_ctrls0.wrQLenPdf::50                     0                       # What write queue length does an incoming req see
system.mem_ctrls0.wrQLenPdf::51                     0                       # What write queue length does an incoming req see
system.mem_ctrls0.wrQLenPdf::52                     0                       # What write queue length does an incoming req see
system.mem_ctrls0.wrQLenPdf::53                     0                       # What write queue length does an incoming req see
system.mem_ctrls0.wrQLenPdf::54                     0                       # What write queue length does an incoming req see
system.mem_ctrls0.wrQLenPdf::55                     0                       # What write queue length does an incoming req see
system.mem_ctrls0.wrQLenPdf::56                     0                       # What write queue length does an incoming req see
system.mem_ctrls0.wrQLenPdf::57                     0                       # What write queue length does an incoming req see
system.mem_ctrls0.wrQLenPdf::58                     0                       # What write queue length does an incoming req see
system.mem_ctrls0.wrQLenPdf::59                     0                       # What write queue length does an incoming req see
system.mem_ctrls0.wrQLenPdf::60                     0                       # What write queue length does an incoming req see
system.mem_ctrls0.wrQLenPdf::61                     0                       # What write queue length does an incoming req see
system.mem_ctrls0.wrQLenPdf::62                     0                       # What write queue length does an incoming req see
system.mem_ctrls0.wrQLenPdf::63                     0                       # What write queue length does an incoming req see
system.mem_ctrls0.bytesPerActivate::samples      2502110                       # Bytes accessed per row activation
system.mem_ctrls0.bytesPerActivate::mean   144.774195                       # Bytes accessed per row activation
system.mem_ctrls0.bytesPerActivate::gmean   108.399531                       # Bytes accessed per row activation
system.mem_ctrls0.bytesPerActivate::stdev   147.597401                       # Bytes accessed per row activation
system.mem_ctrls0.bytesPerActivate::0-127      1322954     52.87%     52.87% # Bytes accessed per row activation
system.mem_ctrls0.bytesPerActivate::128-255       820891     32.81%     85.68% # Bytes accessed per row activation
system.mem_ctrls0.bytesPerActivate::256-383       146289      5.85%     91.53% # Bytes accessed per row activation
system.mem_ctrls0.bytesPerActivate::384-511        75135      3.00%     94.53% # Bytes accessed per row activation
system.mem_ctrls0.bytesPerActivate::512-639        69581      2.78%     97.31% # Bytes accessed per row activation
system.mem_ctrls0.bytesPerActivate::640-767        29449      1.18%     98.49% # Bytes accessed per row activation
system.mem_ctrls0.bytesPerActivate::768-895        22684      0.91%     99.40% # Bytes accessed per row activation
system.mem_ctrls0.bytesPerActivate::896-1023         8077      0.32%     99.72% # Bytes accessed per row activation
system.mem_ctrls0.bytesPerActivate::1024-1151         7050      0.28%    100.00% # Bytes accessed per row activation
system.mem_ctrls0.bytesPerActivate::total      2502110                       # Bytes accessed per row activation
system.mem_ctrls0.rdPerTurnAround::samples        80360                       # Reads before turning the bus around for writes
system.mem_ctrls0.rdPerTurnAround::mean     53.342434                       # Reads before turning the bus around for writes
system.mem_ctrls0.rdPerTurnAround::gmean    47.936903                       # Reads before turning the bus around for writes
system.mem_ctrls0.rdPerTurnAround::stdev   113.884471                       # Reads before turning the bus around for writes
system.mem_ctrls0.rdPerTurnAround::0-1023        80359    100.00%    100.00% # Reads before turning the bus around for writes
system.mem_ctrls0.rdPerTurnAround::30720-31743            1      0.00%    100.00% # Reads before turning the bus around for writes
system.mem_ctrls0.rdPerTurnAround::total        80360                       # Reads before turning the bus around for writes
system.mem_ctrls0.wrPerTurnAround::samples        80360                       # Writes before turning the bus around for reads
system.mem_ctrls0.wrPerTurnAround::mean     17.090406                       # Writes before turning the bus around for reads
system.mem_ctrls0.wrPerTurnAround::gmean    17.057600                       # Writes before turning the bus around for reads
system.mem_ctrls0.wrPerTurnAround::stdev     1.060228                       # Writes before turning the bus around for reads
system.mem_ctrls0.wrPerTurnAround::16           37743     46.97%     46.97% # Writes before turning the bus around for reads
system.mem_ctrls0.wrPerTurnAround::17            1387      1.73%     48.69% # Writes before turning the bus around for reads
system.mem_ctrls0.wrPerTurnAround::18           37756     46.98%     95.68% # Writes before turning the bus around for reads
system.mem_ctrls0.wrPerTurnAround::19            3201      3.98%     99.66% # Writes before turning the bus around for reads
system.mem_ctrls0.wrPerTurnAround::20             246      0.31%     99.97% # Writes before turning the bus around for reads
system.mem_ctrls0.wrPerTurnAround::21              24      0.03%    100.00% # Writes before turning the bus around for reads
system.mem_ctrls0.wrPerTurnAround::22               2      0.00%    100.00% # Writes before turning the bus around for reads
system.mem_ctrls0.wrPerTurnAround::23               1      0.00%    100.00% # Writes before turning the bus around for reads
system.mem_ctrls0.wrPerTurnAround::total        80360                       # Writes before turning the bus around for reads
system.mem_ctrls0.totQLat                 93682591565                       # Total ticks spent queuing
system.mem_ctrls0.totMemAccLat           174057485315                       # Total ticks spent from burst creation until serviced by the DRAM
system.mem_ctrls0.totBusLat               21433305000                       # Total ticks spent in databus transfers
system.mem_ctrls0.avgQLat                    21854.44                       # Average queueing delay per DRAM burst
system.mem_ctrls0.avgBusLat                   5000.00                       # Average bus latency per DRAM burst
system.mem_ctrls0.avgMemAccLat               40604.44                       # Average memory access latency per DRAM burst
system.mem_ctrls0.avgRdBW                      154.09                       # Average DRAM read bandwidth in MiByte/s
system.mem_ctrls0.avgWrBW                       49.37                       # Average achieved write bandwidth in MiByte/s
system.mem_ctrls0.avgRdBWSys                   154.11                       # Average system read bandwidth in MiByte/s
system.mem_ctrls0.avgWrBWSys                    49.37                       # Average system write bandwidth in MiByte/s
system.mem_ctrls0.peakBW                     12800.00                       # Theoretical peak bandwidth in MiByte/s
system.mem_ctrls0.busUtil                        1.59                       # Data bus utilization in percentage
system.mem_ctrls0.busUtilRead                    1.20                       # Data bus utilization in percentage for reads
system.mem_ctrls0.busUtilWrite                   0.39                       # Data bus utilization in percentage for writes
system.mem_ctrls0.avgRdQLen                      1.02                       # Average read queue length when enqueuing
system.mem_ctrls0.avgWrQLen                     24.57                       # Average write queue length when enqueuing
system.mem_ctrls0.readRowHits                 2686804                       # Number of row buffer hits during reads
system.mem_ctrls0.writeRowHits                 471122                       # Number of row buffer hits during writes
system.mem_ctrls0.readRowHitRate                62.68                       # Row buffer hit rate for reads
system.mem_ctrls0.writeRowHitRate               34.30                       # Row buffer hit rate for writes
system.mem_ctrls0.avgGap                    314533.76                       # Average gap between requests
system.mem_ctrls0.pageHitRate                   55.79                       # Row buffer hit rate, read and write combined
system.mem_ctrls0_0.actEnergy              9005210760                       # Energy for activate commands per rank (pJ)
system.mem_ctrls0_0.preEnergy              4786360260                       # Energy for precharge commands per rank (pJ)
system.mem_ctrls0_0.readEnergy            15405571020                       # Energy for read commands per rank (pJ)
system.mem_ctrls0_0.writeEnergy            3630572640                       # Energy for write commands per rank (pJ)
system.mem_ctrls0_0.refreshEnergy        138622832400.000031                       # Energy for refresh commands per rank (pJ)
system.mem_ctrls0_0.actBackEnergy         90306774090                       # Energy for active background per rank (pJ)
system.mem_ctrls0_0.preBackEnergy          5046793440                       # Energy for precharge background per rank (pJ)
system.mem_ctrls0_0.actPowerDownEnergy   530224329540                       # Energy for active power-down per rank (pJ)
system.mem_ctrls0_0.prePowerDownEnergy   105864375840                       # Energy for precharge power-down per rank (pJ)
system.mem_ctrls0_0.selfRefreshEnergy     39494355900                       # Energy for self refresh per rank (pJ)
system.mem_ctrls0_0.totalEnergy          942420794910                       # Total energy per rank (pJ)
system.mem_ctrls0_0.averagePower           529.333295                       # Core power per rank (mW)
system.mem_ctrls0_0.totalIdleTime        1569144110436                       # Total Idle time Per DRAM Rank
system.mem_ctrls0_0.memoryStateTime::IDLE   5288150096                       # Time in different power states
system.mem_ctrls0_0.memoryStateTime::REF  58731182000                       # Time in different power states
system.mem_ctrls0_0.memoryStateTime::SREF 130672250198                       # Time in different power states
system.mem_ctrls0_0.memoryStateTime::PRE_PDN 275689171719                       # Time in different power states
system.mem_ctrls0_0.memoryStateTime::ACT 147228600251                       # Time in different power states
system.mem_ctrls0_0.memoryStateTime::ACT_PDN 1162782688519                       # Time in different power states
system.mem_ctrls0_1.actEnergy              8859926040                       # Energy for activate commands per rank (pJ)
system.mem_ctrls0_1.preEnergy              4709147190                       # Energy for precharge commands per rank (pJ)
system.mem_ctrls0_1.readEnergy            15201181380                       # Energy for read commands per rank (pJ)
system.mem_ctrls0_1.writeEnergy            3538497060                       # Energy for write commands per rank (pJ)
system.mem_ctrls0_1.refreshEnergy        138188896560.000031                       # Energy for refresh commands per rank (pJ)
system.mem_ctrls0_1.actBackEnergy         90758528160                       # Energy for active background per rank (pJ)
system.mem_ctrls0_1.preBackEnergy          5052828480                       # Energy for precharge background per rank (pJ)
system.mem_ctrls0_1.actPowerDownEnergy   525461705370                       # Energy for active power-down per rank (pJ)
system.mem_ctrls0_1.prePowerDownEnergy   106729053120                       # Energy for precharge power-down per rank (pJ)
system.mem_ctrls0_1.selfRefreshEnergy     41347448520                       # Energy for self refresh per rank (pJ)
system.mem_ctrls0_1.totalEnergy          939880074750                       # Total energy per rank (pJ)
system.mem_ctrls0_1.averagePower           527.906236                       # Core power per rank (mW)
system.mem_ctrls0_1.totalIdleTime        1568131705378                       # Total Idle time Per DRAM Rank
system.mem_ctrls0_1.memoryStateTime::IDLE   5347686013                       # Time in different power states
system.mem_ctrls0_1.memoryStateTime::REF  58549308000                       # Time in different power states
system.mem_ctrls0_1.memoryStateTime::SREF 137860250241                       # Time in different power states
system.mem_ctrls0_1.memoryStateTime::PRE_PDN 277941202014                       # Time in different power states
system.mem_ctrls0_1.memoryStateTime::ACT 148363343392                       # Time in different power states
system.mem_ctrls0_1.memoryStateTime::ACT_PDN 1152330253123                       # Time in different power states
system.mem_ctrls1.pwrStateResidencyTicks::UNDEFINED 75050545843485                       # Cumulative time (in ticks) in various power states
system.mem_ctrls1.bytes_read::cpu.inst            128                       # Number of bytes read from this memory
system.mem_ctrls1.bytes_read::cpu.data            192                       # Number of bytes read from this memory
system.mem_ctrls1.bytes_read::switch_cpus.inst        43840                       # Number of bytes read from this memory
system.mem_ctrls1.bytes_read::switch_cpus.data    233459008                       # Number of bytes read from this memory
system.mem_ctrls1.bytes_read::switch_cpus_1.inst         3136                       # Number of bytes read from this memory
system.mem_ctrls1.bytes_read::switch_cpus_1.data     40921600                       # Number of bytes read from this memory
system.mem_ctrls1.bytes_read::total         274427904                       # Number of bytes read from this memory
system.mem_ctrls1.bytes_inst_read::cpu.inst          128                       # Number of instructions bytes read from this memory
system.mem_ctrls1.bytes_inst_read::switch_cpus.inst        43840                       # Number of instructions bytes read from this memory
system.mem_ctrls1.bytes_inst_read::switch_cpus_1.inst         3136                       # Number of instructions bytes read from this memory
system.mem_ctrls1.bytes_inst_read::total        47104                       # Number of instructions bytes read from this memory
system.mem_ctrls1.bytes_written::writebacks     87905984                       # Number of bytes written to this memory
system.mem_ctrls1.bytes_written::total       87905984                       # Number of bytes written to this memory
system.mem_ctrls1.num_reads::cpu.inst               2                       # Number of read requests responded to by this memory
system.mem_ctrls1.num_reads::cpu.data               3                       # Number of read requests responded to by this memory
system.mem_ctrls1.num_reads::switch_cpus.inst          685                       # Number of read requests responded to by this memory
system.mem_ctrls1.num_reads::switch_cpus.data      3647797                       # Number of read requests responded to by this memory
system.mem_ctrls1.num_reads::switch_cpus_1.inst           49                       # Number of read requests responded to by this memory
system.mem_ctrls1.num_reads::switch_cpus_1.data       639400                       # Number of read requests responded to by this memory
system.mem_ctrls1.num_reads::total            4287936                       # Number of read requests responded to by this memory
system.mem_ctrls1.num_writes::writebacks      1373531                       # Number of write requests responded to by this memory
system.mem_ctrls1.num_writes::total           1373531                       # Number of write requests responded to by this memory
system.mem_ctrls1.bw_read::cpu.inst                72                       # Total read bandwidth from this memory (bytes/s)
system.mem_ctrls1.bw_read::cpu.data               108                       # Total read bandwidth from this memory (bytes/s)
system.mem_ctrls1.bw_read::switch_cpus.inst        24624                       # Total read bandwidth from this memory (bytes/s)
system.mem_ctrls1.bw_read::switch_cpus.data    131127865                       # Total read bandwidth from this memory (bytes/s)
system.mem_ctrls1.bw_read::switch_cpus_1.inst         1761                       # Total read bandwidth from this memory (bytes/s)
system.mem_ctrls1.bw_read::switch_cpus_1.data     22984601                       # Total read bandwidth from this memory (bytes/s)
system.mem_ctrls1.bw_read::total            154139031                       # Total read bandwidth from this memory (bytes/s)
system.mem_ctrls1.bw_inst_read::cpu.inst           72                       # Instruction read bandwidth from this memory (bytes/s)
system.mem_ctrls1.bw_inst_read::switch_cpus.inst        24624                       # Instruction read bandwidth from this memory (bytes/s)
system.mem_ctrls1.bw_inst_read::switch_cpus_1.inst         1761                       # Instruction read bandwidth from this memory (bytes/s)
system.mem_ctrls1.bw_inst_read::total           26457                       # Instruction read bandwidth from this memory (bytes/s)
system.mem_ctrls1.bw_write::writebacks       49374510                       # Write bandwidth from this memory (bytes/s)
system.mem_ctrls1.bw_write::total            49374510                       # Write bandwidth from this memory (bytes/s)
system.mem_ctrls1.bw_total::writebacks       49374510                       # Total bandwidth to/from this memory (bytes/s)
system.mem_ctrls1.bw_total::cpu.inst               72                       # Total bandwidth to/from this memory (bytes/s)
system.mem_ctrls1.bw_total::cpu.data              108                       # Total bandwidth to/from this memory (bytes/s)
system.mem_ctrls1.bw_total::switch_cpus.inst        24624                       # Total bandwidth to/from this memory (bytes/s)
system.mem_ctrls1.bw_total::switch_cpus.data    131127865                       # Total bandwidth to/from this memory (bytes/s)
system.mem_ctrls1.bw_total::switch_cpus_1.inst         1761                       # Total bandwidth to/from this memory (bytes/s)
system.mem_ctrls1.bw_total::switch_cpus_1.data     22984601                       # Total bandwidth to/from this memory (bytes/s)
system.mem_ctrls1.bw_total::total           203513540                       # Total bandwidth to/from this memory (bytes/s)
system.mem_ctrls1.readReqs                    4287936                       # Number of read requests accepted
system.mem_ctrls1.writeReqs                   1373531                       # Number of write requests accepted
system.mem_ctrls1.readBursts                  4287936                       # Number of DRAM read bursts, including those serviced by the write queue
system.mem_ctrls1.writeBursts                 1373531                       # Number of DRAM write bursts, including those merged in the write queue
system.mem_ctrls1.bytesReadDRAM             274406272                       # Total number of bytes read from DRAM
system.mem_ctrls1.bytesReadWrQ                  21632                       # Total number of bytes read from write queue
system.mem_ctrls1.bytesWritten               87904704                       # Total number of bytes written to DRAM
system.mem_ctrls1.bytesReadSys              274427904                       # Total read bytes from the system interface side
system.mem_ctrls1.bytesWrittenSys            87905984                       # Total written bytes from the system interface side
system.mem_ctrls1.servicedByWrQ                   338                       # Number of DRAM read bursts serviced by the write queue
system.mem_ctrls1.mergedWrBursts                    0                       # Number of DRAM write bursts merged with an existing one
system.mem_ctrls1.neitherReadNorWriteReqs            0                       # Number of requests that are neither read nor write
system.mem_ctrls1.perBankRdBursts::0           273966                       # Per bank write bursts
system.mem_ctrls1.perBankRdBursts::1           270808                       # Per bank write bursts
system.mem_ctrls1.perBankRdBursts::2           267785                       # Per bank write bursts
system.mem_ctrls1.perBankRdBursts::3           267964                       # Per bank write bursts
system.mem_ctrls1.perBankRdBursts::4           267373                       # Per bank write bursts
system.mem_ctrls1.perBankRdBursts::5           269269                       # Per bank write bursts
system.mem_ctrls1.perBankRdBursts::6           269491                       # Per bank write bursts
system.mem_ctrls1.perBankRdBursts::7           271178                       # Per bank write bursts
system.mem_ctrls1.perBankRdBursts::8           272168                       # Per bank write bursts
system.mem_ctrls1.perBankRdBursts::9           269329                       # Per bank write bursts
system.mem_ctrls1.perBankRdBursts::10          263900                       # Per bank write bursts
system.mem_ctrls1.perBankRdBursts::11          260948                       # Per bank write bursts
system.mem_ctrls1.perBankRdBursts::12          259654                       # Per bank write bursts
system.mem_ctrls1.perBankRdBursts::13          263966                       # Per bank write bursts
system.mem_ctrls1.perBankRdBursts::14          269394                       # Per bank write bursts
system.mem_ctrls1.perBankRdBursts::15          270405                       # Per bank write bursts
system.mem_ctrls1.perBankWrBursts::0            88464                       # Per bank write bursts
system.mem_ctrls1.perBankWrBursts::1            86981                       # Per bank write bursts
system.mem_ctrls1.perBankWrBursts::2            86389                       # Per bank write bursts
system.mem_ctrls1.perBankWrBursts::3            87351                       # Per bank write bursts
system.mem_ctrls1.perBankWrBursts::4            87885                       # Per bank write bursts
system.mem_ctrls1.perBankWrBursts::5            88034                       # Per bank write bursts
system.mem_ctrls1.perBankWrBursts::6            85521                       # Per bank write bursts
system.mem_ctrls1.perBankWrBursts::7            84819                       # Per bank write bursts
system.mem_ctrls1.perBankWrBursts::8            85221                       # Per bank write bursts
system.mem_ctrls1.perBankWrBursts::9            85410                       # Per bank write bursts
system.mem_ctrls1.perBankWrBursts::10           84660                       # Per bank write bursts
system.mem_ctrls1.perBankWrBursts::11           83416                       # Per bank write bursts
system.mem_ctrls1.perBankWrBursts::12           82610                       # Per bank write bursts
system.mem_ctrls1.perBankWrBursts::13           83697                       # Per bank write bursts
system.mem_ctrls1.perBankWrBursts::14           86270                       # Per bank write bursts
system.mem_ctrls1.perBankWrBursts::15           86783                       # Per bank write bursts
system.mem_ctrls1.numRdRetry                        0                       # Number of times read queue was full causing retry
system.mem_ctrls1.numWrRetry                        0                       # Number of times write queue was full causing retry
system.mem_ctrls1.totGap                 1780391913246                       # Total gap between requests
system.mem_ctrls1.readPktSize::0                    0                       # Read request sizes (log2)
system.mem_ctrls1.readPktSize::1                    0                       # Read request sizes (log2)
system.mem_ctrls1.readPktSize::2                    0                       # Read request sizes (log2)
system.mem_ctrls1.readPktSize::3                    0                       # Read request sizes (log2)
system.mem_ctrls1.readPktSize::4                    0                       # Read request sizes (log2)
system.mem_ctrls1.readPktSize::5                    0                       # Read request sizes (log2)
system.mem_ctrls1.readPktSize::6              4287936                       # Read request sizes (log2)
system.mem_ctrls1.writePktSize::0                   0                       # Write request sizes (log2)
system.mem_ctrls1.writePktSize::1                   0                       # Write request sizes (log2)
system.mem_ctrls1.writePktSize::2                   0                       # Write request sizes (log2)
system.mem_ctrls1.writePktSize::3                   0                       # Write request sizes (log2)
system.mem_ctrls1.writePktSize::4                   0                       # Write request sizes (log2)
system.mem_ctrls1.writePktSize::5                   0                       # Write request sizes (log2)
system.mem_ctrls1.writePktSize::6             1373531                       # Write request sizes (log2)
system.mem_ctrls1.rdQLenPdf::0                4089947                       # What read queue length does an incoming req see
system.mem_ctrls1.rdQLenPdf::1                 157157                       # What read queue length does an incoming req see
system.mem_ctrls1.rdQLenPdf::2                  37561                       # What read queue length does an incoming req see
system.mem_ctrls1.rdQLenPdf::3                   2933                       # What read queue length does an incoming req see
system.mem_ctrls1.rdQLenPdf::4                      0                       # What read queue length does an incoming req see
system.mem_ctrls1.rdQLenPdf::5                      0                       # What read queue length does an incoming req see
system.mem_ctrls1.rdQLenPdf::6                      0                       # What read queue length does an incoming req see
system.mem_ctrls1.rdQLenPdf::7                      0                       # What read queue length does an incoming req see
system.mem_ctrls1.rdQLenPdf::8                      0                       # What read queue length does an incoming req see
system.mem_ctrls1.rdQLenPdf::9                      0                       # What read queue length does an incoming req see
system.mem_ctrls1.rdQLenPdf::10                     0                       # What read queue length does an incoming req see
system.mem_ctrls1.rdQLenPdf::11                     0                       # What read queue length does an incoming req see
system.mem_ctrls1.rdQLenPdf::12                     0                       # What read queue length does an incoming req see
system.mem_ctrls1.rdQLenPdf::13                     0                       # What read queue length does an incoming req see
system.mem_ctrls1.rdQLenPdf::14                     0                       # What read queue length does an incoming req see
system.mem_ctrls1.rdQLenPdf::15                     0                       # What read queue length does an incoming req see
system.mem_ctrls1.rdQLenPdf::16                     0                       # What read queue length does an incoming req see
system.mem_ctrls1.rdQLenPdf::17                     0                       # What read queue length does an incoming req see
system.mem_ctrls1.rdQLenPdf::18                     0                       # What read queue length does an incoming req see
system.mem_ctrls1.rdQLenPdf::19                     0                       # What read queue length does an incoming req see
system.mem_ctrls1.rdQLenPdf::20                     0                       # What read queue length does an incoming req see
system.mem_ctrls1.rdQLenPdf::21                     0                       # What read queue length does an incoming req see
system.mem_ctrls1.rdQLenPdf::22                     0                       # What read queue length does an incoming req see
system.mem_ctrls1.rdQLenPdf::23                     0                       # What read queue length does an incoming req see
system.mem_ctrls1.rdQLenPdf::24                     0                       # What read queue length does an incoming req see
system.mem_ctrls1.rdQLenPdf::25                     0                       # What read queue length does an incoming req see
system.mem_ctrls1.rdQLenPdf::26                     0                       # What read queue length does an incoming req see
system.mem_ctrls1.rdQLenPdf::27                     0                       # What read queue length does an incoming req see
system.mem_ctrls1.rdQLenPdf::28                     0                       # What read queue length does an incoming req see
system.mem_ctrls1.rdQLenPdf::29                     0                       # What read queue length does an incoming req see
system.mem_ctrls1.rdQLenPdf::30                     0                       # What read queue length does an incoming req see
system.mem_ctrls1.rdQLenPdf::31                     0                       # What read queue length does an incoming req see
system.mem_ctrls1.wrQLenPdf::0                      2                       # What write queue length does an incoming req see
system.mem_ctrls1.wrQLenPdf::1                      2                       # What write queue length does an incoming req see
system.mem_ctrls1.wrQLenPdf::2                      2                       # What write queue length does an incoming req see
system.mem_ctrls1.wrQLenPdf::3                      2                       # What write queue length does an incoming req see
system.mem_ctrls1.wrQLenPdf::4                      2                       # What write queue length does an incoming req see
system.mem_ctrls1.wrQLenPdf::5                      2                       # What write queue length does an incoming req see
system.mem_ctrls1.wrQLenPdf::6                      2                       # What write queue length does an incoming req see
system.mem_ctrls1.wrQLenPdf::7                      2                       # What write queue length does an incoming req see
system.mem_ctrls1.wrQLenPdf::8                      2                       # What write queue length does an incoming req see
system.mem_ctrls1.wrQLenPdf::9                      2                       # What write queue length does an incoming req see
system.mem_ctrls1.wrQLenPdf::10                     2                       # What write queue length does an incoming req see
system.mem_ctrls1.wrQLenPdf::11                     2                       # What write queue length does an incoming req see
system.mem_ctrls1.wrQLenPdf::12                     2                       # What write queue length does an incoming req see
system.mem_ctrls1.wrQLenPdf::13                     2                       # What write queue length does an incoming req see
system.mem_ctrls1.wrQLenPdf::14                     2                       # What write queue length does an incoming req see
system.mem_ctrls1.wrQLenPdf::15                 40948                       # What write queue length does an incoming req see
system.mem_ctrls1.wrQLenPdf::16                 42877                       # What write queue length does an incoming req see
system.mem_ctrls1.wrQLenPdf::17                 75676                       # What write queue length does an incoming req see
system.mem_ctrls1.wrQLenPdf::18                 79930                       # What write queue length does an incoming req see
system.mem_ctrls1.wrQLenPdf::19                 80801                       # What write queue length does an incoming req see
system.mem_ctrls1.wrQLenPdf::20                 80946                       # What write queue length does an incoming req see
system.mem_ctrls1.wrQLenPdf::21                 80985                       # What write queue length does an incoming req see
system.mem_ctrls1.wrQLenPdf::22                 80949                       # What write queue length does an incoming req see
system.mem_ctrls1.wrQLenPdf::23                 80981                       # What write queue length does an incoming req see
system.mem_ctrls1.wrQLenPdf::24                 81001                       # What write queue length does an incoming req see
system.mem_ctrls1.wrQLenPdf::25                 81059                       # What write queue length does an incoming req see
system.mem_ctrls1.wrQLenPdf::26                 81001                       # What write queue length does an incoming req see
system.mem_ctrls1.wrQLenPdf::27                 81088                       # What write queue length does an incoming req see
system.mem_ctrls1.wrQLenPdf::28                 81389                       # What write queue length does an incoming req see
system.mem_ctrls1.wrQLenPdf::29                 81610                       # What write queue length does an incoming req see
system.mem_ctrls1.wrQLenPdf::30                 81106                       # What write queue length does an incoming req see
system.mem_ctrls1.wrQLenPdf::31                 80580                       # What write queue length does an incoming req see
system.mem_ctrls1.wrQLenPdf::32                 80450                       # What write queue length does an incoming req see
system.mem_ctrls1.wrQLenPdf::33                    98                       # What write queue length does an incoming req see
system.mem_ctrls1.wrQLenPdf::34                    21                       # What write queue length does an incoming req see
system.mem_ctrls1.wrQLenPdf::35                     3                       # What write queue length does an incoming req see
system.mem_ctrls1.wrQLenPdf::36                     2                       # What write queue length does an incoming req see
system.mem_ctrls1.wrQLenPdf::37                     0                       # What write queue length does an incoming req see
system.mem_ctrls1.wrQLenPdf::38                     0                       # What write queue length does an incoming req see
system.mem_ctrls1.wrQLenPdf::39                     0                       # What write queue length does an incoming req see
system.mem_ctrls1.wrQLenPdf::40                     0                       # What write queue length does an incoming req see
system.mem_ctrls1.wrQLenPdf::41                     0                       # What write queue length does an incoming req see
system.mem_ctrls1.wrQLenPdf::42                     0                       # What write queue length does an incoming req see
system.mem_ctrls1.wrQLenPdf::43                     0                       # What write queue length does an incoming req see
system.mem_ctrls1.wrQLenPdf::44                     0                       # What write queue length does an incoming req see
system.mem_ctrls1.wrQLenPdf::45                     0                       # What write queue length does an incoming req see
system.mem_ctrls1.wrQLenPdf::46                     0                       # What write queue length does an incoming req see
system.mem_ctrls1.wrQLenPdf::47                     0                       # What write queue length does an incoming req see
system.mem_ctrls1.wrQLenPdf::48                     0                       # What write queue length does an incoming req see
system.mem_ctrls1.wrQLenPdf::49                     0                       # What write queue length does an incoming req see
system.mem_ctrls1.wrQLenPdf::50                     0                       # What write queue length does an incoming req see
system.mem_ctrls1.wrQLenPdf::51                     0                       # What write queue length does an incoming req see
system.mem_ctrls1.wrQLenPdf::52                     0                       # What write queue length does an incoming req see
system.mem_ctrls1.wrQLenPdf::53                     0                       # What write queue length does an incoming req see
system.mem_ctrls1.wrQLenPdf::54                     0                       # What write queue length does an incoming req see
system.mem_ctrls1.wrQLenPdf::55                     0                       # What write queue length does an incoming req see
system.mem_ctrls1.wrQLenPdf::56                     0                       # What write queue length does an incoming req see
system.mem_ctrls1.wrQLenPdf::57                     0                       # What write queue length does an incoming req see
system.mem_ctrls1.wrQLenPdf::58                     0                       # What write queue length does an incoming req see
system.mem_ctrls1.wrQLenPdf::59                     0                       # What write queue length does an incoming req see
system.mem_ctrls1.wrQLenPdf::60                     0                       # What write queue length does an incoming req see
system.mem_ctrls1.wrQLenPdf::61                     0                       # What write queue length does an incoming req see
system.mem_ctrls1.wrQLenPdf::62                     0                       # What write queue length does an incoming req see
system.mem_ctrls1.wrQLenPdf::63                     0                       # What write queue length does an incoming req see
system.mem_ctrls1.bytesPerActivate::samples      2502612                       # Bytes accessed per row activation
system.mem_ctrls1.bytesPerActivate::mean   144.772748                       # Bytes accessed per row activation
system.mem_ctrls1.bytesPerActivate::gmean   108.375113                       # Bytes accessed per row activation
system.mem_ctrls1.bytesPerActivate::stdev   147.654620                       # Bytes accessed per row activation
system.mem_ctrls1.bytesPerActivate::0-127      1324290     52.92%     52.92% # Bytes accessed per row activation
system.mem_ctrls1.bytesPerActivate::128-255       819865     32.76%     85.68% # Bytes accessed per row activation
system.mem_ctrls1.bytesPerActivate::256-383       146327      5.85%     91.52% # Bytes accessed per row activation
system.mem_ctrls1.bytesPerActivate::384-511        75255      3.01%     94.53% # Bytes accessed per row activation
system.mem_ctrls1.bytesPerActivate::512-639        69455      2.78%     97.31% # Bytes accessed per row activation
system.mem_ctrls1.bytesPerActivate::640-767        29530      1.18%     98.49% # Bytes accessed per row activation
system.mem_ctrls1.bytesPerActivate::768-895        22789      0.91%     99.40% # Bytes accessed per row activation
system.mem_ctrls1.bytesPerActivate::896-1023         8049      0.32%     99.72% # Bytes accessed per row activation
system.mem_ctrls1.bytesPerActivate::1024-1151         7052      0.28%    100.00% # Bytes accessed per row activation
system.mem_ctrls1.bytesPerActivate::total      2502612                       # Bytes accessed per row activation
system.mem_ctrls1.rdPerTurnAround::samples        80370                       # Reads before turning the bus around for writes
system.mem_ctrls1.rdPerTurnAround::mean     53.348065                       # Reads before turning the bus around for writes
system.mem_ctrls1.rdPerTurnAround::gmean    47.925639                       # Reads before turning the bus around for writes
system.mem_ctrls1.rdPerTurnAround::stdev   114.029019                       # Reads before turning the bus around for writes
system.mem_ctrls1.rdPerTurnAround::0-1023        80369    100.00%    100.00% # Reads before turning the bus around for writes
system.mem_ctrls1.rdPerTurnAround::30720-31743            1      0.00%    100.00% # Reads before turning the bus around for writes
system.mem_ctrls1.rdPerTurnAround::total        80370                       # Reads before turning the bus around for writes
system.mem_ctrls1.wrPerTurnAround::samples        80370                       # Writes before turning the bus around for reads
system.mem_ctrls1.wrPerTurnAround::mean     17.089847                       # Writes before turning the bus around for reads
system.mem_ctrls1.wrPerTurnAround::gmean    17.057032                       # Writes before turning the bus around for reads
system.mem_ctrls1.wrPerTurnAround::stdev     1.060502                       # Writes before turning the bus around for reads
system.mem_ctrls1.wrPerTurnAround::16           37742     46.96%     46.96% # Writes before turning the bus around for reads
system.mem_ctrls1.wrPerTurnAround::17            1471      1.83%     48.79% # Writes before turning the bus around for reads
system.mem_ctrls1.wrPerTurnAround::18           37658     46.86%     95.65% # Writes before turning the bus around for reads
system.mem_ctrls1.wrPerTurnAround::19            3228      4.02%     99.66% # Writes before turning the bus around for reads
system.mem_ctrls1.wrPerTurnAround::20             245      0.30%     99.97% # Writes before turning the bus around for reads
system.mem_ctrls1.wrPerTurnAround::21              20      0.02%     99.99% # Writes before turning the bus around for reads
system.mem_ctrls1.wrPerTurnAround::22               4      0.00%    100.00% # Writes before turning the bus around for reads
system.mem_ctrls1.wrPerTurnAround::23               1      0.00%    100.00% # Writes before turning the bus around for reads
system.mem_ctrls1.wrPerTurnAround::25               1      0.00%    100.00% # Writes before turning the bus around for reads
system.mem_ctrls1.wrPerTurnAround::total        80370                       # Writes before turning the bus around for reads
system.mem_ctrls1.totQLat                 93871460098                       # Total ticks spent queuing
system.mem_ctrls1.totMemAccLat           174263922598                       # Total ticks spent from burst creation until serviced by the DRAM
system.mem_ctrls1.totBusLat               21437990000                       # Total ticks spent in databus transfers
system.mem_ctrls1.avgQLat                    21893.72                       # Average queueing delay per DRAM burst
system.mem_ctrls1.avgBusLat                   5000.00                       # Average bus latency per DRAM burst
system.mem_ctrls1.avgMemAccLat               40643.72                       # Average memory access latency per DRAM burst
system.mem_ctrls1.avgRdBW                      154.13                       # Average DRAM read bandwidth in MiByte/s
system.mem_ctrls1.avgWrBW                       49.37                       # Average achieved write bandwidth in MiByte/s
system.mem_ctrls1.avgRdBWSys                   154.14                       # Average system read bandwidth in MiByte/s
system.mem_ctrls1.avgWrBWSys                    49.37                       # Average system write bandwidth in MiByte/s
system.mem_ctrls1.peakBW                     12800.00                       # Theoretical peak bandwidth in MiByte/s
system.mem_ctrls1.busUtil                        1.59                       # Data bus utilization in percentage
system.mem_ctrls1.busUtilRead                    1.20                       # Data bus utilization in percentage for reads
system.mem_ctrls1.busUtilWrite                   0.39                       # Data bus utilization in percentage for writes
system.mem_ctrls1.avgRdQLen                      1.02                       # Average read queue length when enqueuing
system.mem_ctrls1.avgWrQLen                     24.54                       # Average write queue length when enqueuing
system.mem_ctrls1.readRowHits                 2687411                       # Number of row buffer hits during reads
system.mem_ctrls1.writeRowHits                 471075                       # Number of row buffer hits during writes
system.mem_ctrls1.readRowHitRate                62.68                       # Row buffer hit rate for reads
system.mem_ctrls1.writeRowHitRate               34.30                       # Row buffer hit rate for writes
system.mem_ctrls1.avgGap                    314475.37                       # Average gap between requests
system.mem_ctrls1.pageHitRate                   55.79                       # Row buffer hit rate, read and write combined
system.mem_ctrls1_0.actEnergy              9003639960                       # Energy for activate commands per rank (pJ)
system.mem_ctrls1_0.preEnergy              4785525360                       # Energy for precharge commands per rank (pJ)
system.mem_ctrls1_0.readEnergy            15406934760                       # Energy for read commands per rank (pJ)
system.mem_ctrls1_0.writeEnergy            3630217680                       # Energy for write commands per rank (pJ)
system.mem_ctrls1_0.refreshEnergy        138601934640.000031                       # Energy for refresh commands per rank (pJ)
system.mem_ctrls1_0.actBackEnergy         90596259990                       # Energy for active background per rank (pJ)
system.mem_ctrls1_0.preBackEnergy          5044178400                       # Energy for precharge background per rank (pJ)
system.mem_ctrls1_0.actPowerDownEnergy   530535184170                       # Energy for active power-down per rank (pJ)
system.mem_ctrls1_0.prePowerDownEnergy   105567445920                       # Energy for precharge power-down per rank (pJ)
system.mem_ctrls1_0.selfRefreshEnergy     39304622760                       # Energy for self refresh per rank (pJ)
system.mem_ctrls1_0.totalEnergy          942508960020                       # Total energy per rank (pJ)
system.mem_ctrls1_0.averagePower           529.382815                       # Core power per rank (mW)
system.mem_ctrls1_0.totalIdleTime        1568516352927                       # Total Idle time Per DRAM Rank
system.mem_ctrls1_0.memoryStateTime::IDLE   5284989498                       # Time in different power states
system.mem_ctrls1_0.memoryStateTime::REF  58721850000                       # Time in different power states
system.mem_ctrls1_0.memoryStateTime::SREF 130137040212                       # Time in different power states
system.mem_ctrls1_0.memoryStateTime::PRE_PDN 274913872876                       # Time in different power states
system.mem_ctrls1_0.memoryStateTime::ACT 147868774306                       # Time in different power states
system.mem_ctrls1_0.memoryStateTime::ACT_PDN 1163465515891                       # Time in different power states
system.mem_ctrls1_1.actEnergy              8865088260                       # Energy for activate commands per rank (pJ)
system.mem_ctrls1_1.preEnergy              4711887180                       # Energy for precharge commands per rank (pJ)
system.mem_ctrls1_1.readEnergy            15206514960                       # Energy for read commands per rank (pJ)
system.mem_ctrls1_1.writeEnergy            3539509740                       # Energy for write commands per rank (pJ)
system.mem_ctrls1_1.refreshEnergy        138279248640.000031                       # Energy for refresh commands per rank (pJ)
system.mem_ctrls1_1.actBackEnergy         90780705720                       # Energy for active background per rank (pJ)
system.mem_ctrls1_1.preBackEnergy          5072761440                       # Energy for precharge background per rank (pJ)
system.mem_ctrls1_1.actPowerDownEnergy   525727308270                       # Energy for active power-down per rank (pJ)
system.mem_ctrls1_1.prePowerDownEnergy   106723382880                       # Energy for precharge power-down per rank (pJ)
system.mem_ctrls1_1.selfRefreshEnergy     41224044705                       # Energy for self refresh per rank (pJ)
system.mem_ctrls1_1.totalEnergy          940165591395                       # Total energy per rank (pJ)
system.mem_ctrls1_1.averagePower           528.066606                       # Core power per rank (mW)
system.mem_ctrls1_1.totalIdleTime        1568025454218                       # Total Idle time Per DRAM Rank
system.mem_ctrls1_1.memoryStateTime::IDLE   5402923093                       # Time in different power states
system.mem_ctrls1_1.memoryStateTime::REF  58587228000                       # Time in different power states
system.mem_ctrls1_1.memoryStateTime::SREF 137186872860                       # Time in different power states
system.mem_ctrls1_1.memoryStateTime::PRE_PDN 277925027747                       # Time in different power states
system.mem_ctrls1_1.memoryStateTime::ACT 148376251627                       # Time in different power states
system.mem_ctrls1_1.memoryStateTime::ACT_PDN 1152913739456                       # Time in different power states
system.pwrStateResidencyTicks::UNDEFINED 75050545843485                       # Cumulative time (in ticks) in various power states
system.cpu.branchPred.lookups                       2                       # Number of BP lookups
system.cpu.branchPred.condPredicted                 2                       # Number of conditional branches predicted
system.cpu.branchPred.condIncorrect                 1                       # Number of conditional branches incorrect
system.cpu.branchPred.BTBLookups                    0                       # Number of BTB lookups
system.cpu.branchPred.BTBHits                       0                       # Number of BTB hits
system.cpu.branchPred.BTBCorrect                    0                       # Number of correct BTB predictions (this stat may not work properly.
system.cpu.branchPred.BTBHitPct                   nan                       # BTB Hit Percentage
system.cpu.branchPred.usedRAS                       0                       # Number of times the RAS was used to get a target.
system.cpu.branchPred.RASInCorrect                  0                       # Number of incorrect RAS predictions.
system.cpu.branchPred.indirectLookups               0                       # Number of indirect predictor lookups.
system.cpu.branchPred.indirectHits                  0                       # Number of indirect target hits.
system.cpu.branchPred.indirectMisses                0                       # Number of indirect misses.
system.cpu.branchPredindirectMispredicted            0                       # Number of mispredicted indirect branches.
system.cpu_voltage_domain.voltage                   1                       # Voltage in Volts
system.cpu_clk_domain.clock                       333                       # Clock period in ticks
system.cpu.dtb.fetch_hits                           0                       # ITB hits
system.cpu.dtb.fetch_misses                         0                       # ITB misses
system.cpu.dtb.fetch_acv                            0                       # ITB acv
system.cpu.dtb.fetch_accesses                       0                       # ITB accesses
system.cpu.dtb.read_hits                           23                       # DTB read hits
system.cpu.dtb.read_misses                          0                       # DTB read misses
system.cpu.dtb.read_acv                             0                       # DTB read access violations
system.cpu.dtb.read_accesses                       23                       # DTB read accesses
system.cpu.dtb.write_hits                           3                       # DTB write hits
system.cpu.dtb.write_misses                         0                       # DTB write misses
system.cpu.dtb.write_acv                            0                       # DTB write access violations
system.cpu.dtb.write_accesses                       3                       # DTB write accesses
system.cpu.dtb.data_hits                           26                       # DTB hits
system.cpu.dtb.data_misses                          0                       # DTB misses
system.cpu.dtb.data_acv                             0                       # DTB access violations
system.cpu.dtb.data_accesses                       26                       # DTB accesses
system.cpu.itb.fetch_hits                           7                       # ITB hits
system.cpu.itb.fetch_misses                         0                       # ITB misses
system.cpu.itb.fetch_acv                            0                       # ITB acv
system.cpu.itb.fetch_accesses                       7                       # ITB accesses
system.cpu.itb.read_hits                            0                       # DTB read hits
system.cpu.itb.read_misses                          0                       # DTB read misses
system.cpu.itb.read_acv                             0                       # DTB read access violations
system.cpu.itb.read_accesses                        0                       # DTB read accesses
system.cpu.itb.write_hits                           0                       # DTB write hits
system.cpu.itb.write_misses                         0                       # DTB write misses
system.cpu.itb.write_acv                            0                       # DTB write access violations
system.cpu.itb.write_accesses                       0                       # DTB write accesses
system.cpu.itb.data_hits                            0                       # DTB hits
system.cpu.itb.data_misses                          0                       # DTB misses
system.cpu.itb.data_acv                             0                       # DTB access violations
system.cpu.itb.data_accesses                        0                       # DTB accesses
system.cpu.workload.num_syscalls                    0                       # Number of system calls
system.cpu.pwrStateResidencyTicks::ON    1780392042783                       # Cumulative time (in ticks) in various power states
system.cpu.numCycles                              871                       # number of cpu cycles simulated
system.cpu.numWorkItemsStarted                      0                       # number of work items this cpu started
system.cpu.numWorkItemsCompleted                    0                       # number of work items this cpu completed
system.cpu.fetch.icacheStallCycles                 62                       # Number of cycles fetch is stalled on an Icache miss
system.cpu.fetch.Insts                             51                       # Number of instructions fetch has processed
system.cpu.fetch.Branches                           2                       # Number of branches that fetch encountered
system.cpu.fetch.Cycles                             7                       # Number of cycles fetch has run and was not squashing or blocked
system.cpu.fetch.SquashCycles                       5                       # Number of cycles fetch has spent squashing
system.cpu.fetch.PendingDrainCycles                10                       # Number of cycles fetch has spent waiting on pipes to drain
system.cpu.fetch.CacheLines                         7                       # Number of cache lines fetched
system.cpu.fetch.IcacheSquashes                     3                       # Number of outstanding Icache misses that were squashed
system.cpu.fetch.rateDist::samples                 81                       # Number of instructions fetched each cycle (Total)
system.cpu.fetch.rateDist::mean              0.629630                       # Number of instructions fetched each cycle (Total)
system.cpu.fetch.rateDist::stdev             2.100265                       # Number of instructions fetched each cycle (Total)
system.cpu.fetch.rateDist::underflows               0      0.00%      0.00% # Number of instructions fetched each cycle (Total)
system.cpu.fetch.rateDist::0                       74     91.36%     91.36% # Number of instructions fetched each cycle (Total)
system.cpu.fetch.rateDist::1                        0      0.00%     91.36% # Number of instructions fetched each cycle (Total)
system.cpu.fetch.rateDist::2                        0      0.00%     91.36% # Number of instructions fetched each cycle (Total)
system.cpu.fetch.rateDist::3                        0      0.00%     91.36% # Number of instructions fetched each cycle (Total)
[...]
system.switch_cpus_1.iq.int_inst_queue_writes    142180420                       # Number of integer instruction queue writes
system.switch_cpus_1.iq.int_inst_queue_wakeup_accesses    140180362                       # Number of integer instruction queue wakeup accesses
system.switch_cpus_1.iq.fp_inst_queue_reads    152740061                       # Number of floating instruction queue reads
system.switch_cpus_1.iq.fp_inst_queue_writes     62655501                       # Number of floating instruction queue writes
system.switch_cpus_1.iq.fp_inst_queue_wakeup_accesses     61348167                       # Number of floating instruction queue wakeup accesses
system.switch_cpus_1.iq.int_alu_accesses    154327963                       # Number of integer alu accesses
system.switch_cpus_1.iq.fp_alu_accesses      82258735                       # Number of floating point alu accesses
system.switch_cpus_1.iew.lsq.thread0.forwLoads      1437481                       # Number of loads that had data forwarded from stores
system.switch_cpus_1.iew.lsq.thread0.invAddrLoads            0                       # Number of loads ignored due to an invalid address
system.switch_cpus_1.iew.lsq.thread0.squashedLoads       803256                       # Number of loads squashed
system.switch_cpus_1.iew.lsq.thread0.ignoredResponses            0                       # Number of memory responses ignored because the instruction is squashed
system.switch_cpus_1.iew.lsq.thread0.memOrderViolation          352                       # Number of memory ordering violations
system.switch_cpus_1.iew.lsq.thread0.squashedStores       151876                       # Number of stores squashed
system.switch_cpus_1.iew.lsq.thread0.invAddrSwpfs            0                       # Number of software prefetches ignored due to an invalid address
system.switch_cpus_1.iew.lsq.thread0.blockedLoads            0                       # Number of blocked loads due to partial load-store forwarding
system.switch_cpus_1.iew.lsq.thread0.rescheduledLoads            0                       # Number of loads that were rescheduled
system.switch_cpus_1.iew.lsq.thread0.cacheBlocked     13063968                       # Number of times an access to memory failed due to the cache being blocked
system.switch_cpus_1.iew.iewIdleCycles              0                       # Number of cycles IEW is idle
system.switch_cpus_1.iew.iewSquashCycles        63502                       # Number of cycles IEW is squashing
system.switch_cpus_1.iew.iewBlockCycles      16305266                       # Number of cycles IEW is blocking
system.switch_cpus_1.iew.iewUnblockCycles     30233441                       # Number of cycles IEW is unblocking
system.switch_cpus_1.iew.iewDispatchedInsts    202485714                       # Number of instructions dispatched to IQ
system.switch_cpus_1.iew.iewDispSquashedInsts        61661                       # Number of squashed instructions skipped by dispatch
system.switch_cpus_1.iew.iewDispLoadInsts     68397655                       # Number of dispatched load instructions
system.switch_cpus_1.iew.iewDispStoreInsts     10464357                       # Number of dispatched store instructions
system.switch_cpus_1.iew.iewDispNonSpecInsts           86                       # Number of dispatched non-speculative instructions
system.switch_cpus_1.iew.iewIQFullEvents       250712                       # Number of times the IQ has become full, causing a stall
system.switch_cpus_1.iew.iewLSQFullEvents     29719854                       # Number of times the LSQ has become full, causing a stall
system.switch_cpus_1.iew.memOrderViolationEvents          352                       # Number of memory order violations
system.switch_cpus_1.iew.predictedTakenIncorrect        47618                       # Number of branches that were predicted taken incorrectly
system.switch_cpus_1.iew.predictedNotTakenIncorrect          437                       # Number of branches that were predicted not taken incorrectly
system.switch_cpus_1.iew.branchMispredicts        48055                       # Number of branch mispredicts detected at execute
system.switch_cpus_1.iew.iewExecutedInsts    214450504                       # Number of executed instructions
system.switch_cpus_1.iew.iewExecLoadInsts     80948091                       # Number of load instructions executed
system.switch_cpus_1.iew.iewExecSquashedInsts       115286                       # Number of squashed instructions skipped in execute
system.switch_cpus_1.iew.exec_swp                   0                       # number of swp insts executed
system.switch_cpus_1.iew.exec_nop               67886                       # number of nop insts executed
system.switch_cpus_1.iew.exec_refs           91302606                       # number of memory reference insts executed
system.switch_cpus_1.iew.exec_branches        5549850                       # Number of branches executed
system.switch_cpus_1.iew.exec_stores         10354515                       # Number of stores executed
system.switch_cpus_1.iew.exec_rate           0.906218                       # Inst execution rate
system.switch_cpus_1.iew.wb_sent            201662803                       # cumulative count of insts sent to commit
system.switch_cpus_1.iew.wb_count           201528529                       # cumulative count of insts written-back
system.switch_cpus_1.iew.wb_producers       139738908                       # num instructions producing a value
system.switch_cpus_1.iew.wb_consumers       153422239                       # num instructions consuming a value
system.switch_cpus_1.iew.wb_rate             0.851612                       # insts written-back per cycle
system.switch_cpus_1.iew.wb_fanout           0.910813                       # average fanout of values written-back
system.switch_cpus_1.commit.commitSquashedInsts      2362334                       # The number of squashed insts skipped by commit
system.switch_cpus_1.commit.commitNonSpecStalls          144                       # The number of times commit has been forced to stall to communicate backwards
system.switch_cpus_1.commit.branchMispredicts        47875                       # The number of times a branch was mispredicted
system.switch_cpus_1.commit.committed_per_cycle::samples    236310472                       # Number of insts commited each cycle
system.switch_cpus_1.commit.committed_per_cycle::mean     0.846592                       # Number of insts commited each cycle
system.switch_cpus_1.commit.committed_per_cycle::stdev     2.302066                       # Number of insts commited each cycle
system.switch_cpus_1.commit.committed_per_cycle::underflows            0      0.00%      0.00% # Number of insts commited each cycle
system.switch_cpus_1.commit.committed_per_cycle::0    200501218     84.85%     84.85% # Number of insts commited each cycle
system.switch_cpus_1.commit.committed_per_cycle::1      7412570      3.14%     87.98% # Number of insts commited each cycle
system.switch_cpus_1.commit.committed_per_cycle::2      1505026      0.64%     88.62% # Number of insts commited each cycle
system.switch_cpus_1.commit.committed_per_cycle::3      1582026      0.67%     89.29% # Number of insts commited each cycle
system.switch_cpus_1.commit.committed_per_cycle::4      2206360      0.93%     90.22% # Number of insts commited each cycle
system.switch_cpus_1.commit.committed_per_cycle::5      1476739      0.62%     90.85% # Number of insts commited each cycle
system.switch_cpus_1.commit.committed_per_cycle::6      1339578      0.57%     91.42% # Number of insts commited each cycle
system.switch_cpus_1.commit.committed_per_cycle::7      1652272      0.70%     92.11% # Number of insts commited each cycle
system.switch_cpus_1.commit.committed_per_cycle::8     18634683      7.89%    100.00% # Number of insts commited each cycle
system.switch_cpus_1.commit.committed_per_cycle::overflows            0      0.00%    100.00% # Number of insts commited each cycle
system.switch_cpus_1.commit.committed_per_cycle::min_value            0                       # Number of insts commited each cycle
system.switch_cpus_1.commit.committed_per_cycle::max_value            8                       # Number of insts commited each cycle
system.switch_cpus_1.commit.committed_per_cycle::total    236310472                       # Number of insts commited each cycle
system.switch_cpus_1.commit.committedInsts    200058671                       # Number of instructions committed
system.switch_cpus_1.commit.committedOps    200058671                       # Number of ops (including micro ops) committed
system.switch_cpus_1.commit.swp_count               0                       # Number of s/w prefetches committed
system.switch_cpus_1.commit.refs             77906848                       # Number of memory references committed
system.switch_cpus_1.commit.loads            67594371                       # Number of loads committed
system.switch_cpus_1.commit.membars                72                       # Number of memory barriers committed
system.switch_cpus_1.commit.branches          5447366                       # Number of branches committed
system.switch_cpus_1.commit.fp_insts         61032861                       # Number of committed floating point instructions.
system.switch_cpus_1.commit.int_insts       169602469                       # Number of committed integer instructions.
system.switch_cpus_1.commit.function_calls           74                       # Number of function calls committed.
system.switch_cpus_1.commit.op_class_0::No_OpClass        58667      0.03%      0.03% # Class of committed instruction
system.switch_cpus_1.commit.op_class_0::IntAlu     69024585     34.50%     34.53% # Class of committed instruction
system.switch_cpus_1.commit.op_class_0::IntMult     22692429     11.34%     45.87% # Class of committed instruction
system.switch_cpus_1.commit.op_class_0::IntDiv            0      0.00%     45.87% # Class of committed instruction
system.switch_cpus_1.commit.op_class_0::FloatAdd     15421069      7.71%     53.58% # Class of committed instruction
system.switch_cpus_1.commit.op_class_0::FloatCmp            0      0.00%     53.58% # Class of committed instruction
system.switch_cpus_1.commit.op_class_0::FloatCvt         3010      0.00%     53.58% # Class of committed instruction
system.switch_cpus_1.commit.op_class_0::FloatMult     13619855      6.81%     60.39% # Class of committed instruction
system.switch_cpus_1.commit.op_class_0::FloatMultAcc            0      0.00%     60.39% # Class of committed instruction
system.switch_cpus_1.commit.op_class_0::FloatDiv      1151536      0.58%     60.97% # Class of committed instruction
system.switch_cpus_1.commit.op_class_0::FloatMisc            0      0.00%     60.97% # Class of committed instruction
system.switch_cpus_1.commit.op_class_0::FloatSqrt       180600      0.09%     61.06% # Class of committed instruction
system.switch_cpus_1.commit.op_class_0::SimdAdd            0      0.00%     61.06% # Class of committed instruction
system.switch_cpus_1.commit.op_class_0::SimdAddAcc            0      0.00%     61.06% # Class of committed instruction
system.switch_cpus_1.commit.op_class_0::SimdAlu            0      0.00%     61.06% # Class of committed instruction
system.switch_cpus_1.commit.op_class_0::SimdCmp            0      0.00%     61.06% # Class of committed instruction
system.switch_cpus_1.commit.op_class_0::SimdCvt            0      0.00%     61.06% # Class of committed instruction
system.switch_cpus_1.commit.op_class_0::SimdMisc            0      0.00%     61.06% # Class of committed instruction
system.switch_cpus_1.commit.op_class_0::SimdMult            0      0.00%     61.06% # Class of committed instruction
system.switch_cpus_1.commit.op_class_0::SimdMultAcc            0      0.00%     61.06% # Class of committed instruction
system.switch_cpus_1.commit.op_class_0::SimdShift            0      0.00%     61.06% # Class of committed instruction
system.switch_cpus_1.commit.op_class_0::SimdShiftAcc            0      0.00%     61.06% # Class of committed instruction
system.switch_cpus_1.commit.op_class_0::SimdSqrt            0      0.00%     61.06% # Class of committed instruction
system.switch_cpus_1.commit.op_class_0::SimdFloatAdd            0      0.00%     61.06% # Class of committed instruction
system.switch_cpus_1.commit.op_class_0::SimdFloatAlu            0      0.00%     61.06% # Class of committed instruction
system.switch_cpus_1.commit.op_class_0::SimdFloatCmp            0      0.00%     61.06% # Class of committed instruction
system.switch_cpus_1.commit.op_class_0::SimdFloatCvt            0      0.00%     61.06% # Class of committed instruction
system.switch_cpus_1.commit.op_class_0::SimdFloatDiv            0      0.00%     61.06% # Class of committed instruction
system.switch_cpus_1.commit.op_class_0::SimdFloatMisc            0      0.00%     61.06% # Class of committed instruction
system.switch_cpus_1.commit.op_class_0::SimdFloatMult            0      0.00%     61.06% # Class of committed instruction
system.switch_cpus_1.commit.op_class_0::SimdFloatMultAcc            0      0.00%     61.06% # Class of committed instruction
system.switch_cpus_1.commit.op_class_0::SimdFloatSqrt            0      0.00%     61.06% # Class of committed instruction
system.switch_cpus_1.commit.op_class_0::MemRead     44149715     22.07%     83.13% # Class of committed instruction
system.switch_cpus_1.commit.op_class_0::MemWrite      3100414      1.55%     84.68% # Class of committed instruction
system.switch_cpus_1.commit.op_class_0::FloatMemRead     23444728     11.72%     96.40% # Class of committed instruction
system.switch_cpus_1.commit.op_class_0::FloatMemWrite      7212063      3.60%    100.00% # Class of committed instruction
system.switch_cpus_1.commit.op_class_0::IprAccess            0      0.00%    100.00% # Class of committed instruction
system.switch_cpus_1.commit.op_class_0::InstPrefetch            0      0.00%    100.00% # Class of committed instruction
system.switch_cpus_1.commit.op_class_0::total    200058671                       # Class of committed instruction
system.switch_cpus_1.commit.bw_lim_events     18634683                       # number cycles where commit BW limit reached
system.switch_cpus_1.rob.rob_reads          419897621                       # The number of ROB reads
system.switch_cpus_1.rob.rob_writes         405161620                       # The number of ROB writes
system.switch_cpus_1.timesIdled                   121                       # Number of times that the entire CPU went into an idle state and unscheduled itself
system.switch_cpus_1.idleCycles                 13493                       # Total number of cycles that the CPU has spent unscheduled due to idling
system.switch_cpus_1.committedInsts         200000004                       # Number of Instructions Simulated
system.switch_cpus_1.committedOps           200000004                       # Number of Ops (including micro ops) Simulated
system.switch_cpus_1.cpi                     1.183217                       # CPI: Cycles Per Instruction
system.switch_cpus_1.cpi_total               1.183217                       # CPI: Total CPI of All Threads
system.switch_cpus_1.ipc                     0.845153                       # IPC: Instructions Per Cycle
system.switch_cpus_1.ipc_total               0.845153                       # IPC: Total IPC of All Threads
system.switch_cpus_1.int_regfile_reads      260986557                       # number of integer regfile reads
system.switch_cpus_1.int_regfile_writes     131552250                       # number of integer regfile writes
system.switch_cpus_1.fp_regfile_reads        68054402                       # number of floating regfile reads
system.switch_cpus_1.fp_regfile_writes       54126069                       # number of floating regfile writes
system.switch_cpus_1.misc_regfile_reads           162                       # number of misc regfile reads
system.switch_cpus_1.misc_regfile_writes          144                       # number of misc regfile writes
system.tol3bus.snoop_filter.tot_requests     21501558                       # Total number of requests made to the snoop filter.
system.tol3bus.snoop_filter.hit_single_requests     10748472                       # Number of requests hitting in the snoop filter with a single holder of the requested data.
system.tol3bus.snoop_filter.hit_multi_requests            0                       # Number of requests hitting in the snoop filter with multiple (>1) holders of the requested data.
system.tol3bus.snoop_filter.tot_snoops          99602                       # Total number of snoops made to the snoop filter.
system.tol3bus.snoop_filter.hit_single_snoops        99602                       # Number of snoops hitting in the snoop filter with a single holder of the requested data.
system.tol3bus.snoop_filter.hit_multi_snoops            0                       # Number of snoops hitting in the snoop filter with multiple (>1) holders of the requested data.
system.tol3bus.pwrStateResidencyTicks::UNDEFINED 75050545843485                       # Cumulative time (in ticks) in various power states
system.tol3bus.trans_dist::ReadResp           8306215                       # Transaction distribution
system.tol3bus.trans_dist::WritebackDirty      6013931                       # Transaction distribution
system.tol3bus.trans_dist::CleanEvict        13249254                       # Transaction distribution
system.tol3bus.trans_dist::ReadExReq          2446871                       # Transaction distribution
system.tol3bus.trans_dist::ReadExResp         2446869                       # Transaction distribution
system.tol3bus.trans_dist::ReadSharedReq      8306215                       # Transaction distribution
system.tol3bus.pkt_count_system.cpu.l2.mem_side::system.l3.cpu_side     32254642                       # Packet count per connected master and slave (bytes)
system.tol3bus.pkt_size_system.cpu.l2.mem_side::system.l3.cpu_side    897284352                       # Cumulative packet size per connected master and slave (bytes)
system.tol3bus.snoops                         8514713                       # Total snoops (count)
system.tol3bus.snoopTraffic                 175804608                       # Total snoop traffic (bytes)
system.tol3bus.snoop_fanout::samples         19267799                       # Request fanout histogram
system.tol3bus.snoop_fanout::mean            0.005169                       # Request fanout histogram
system.tol3bus.snoop_fanout::stdev           0.071712                       # Request fanout histogram
system.tol3bus.snoop_fanout::underflows             0      0.00%      0.00% # Request fanout histogram
system.tol3bus.snoop_fanout::0               19168197     99.48%     99.48% # Request fanout histogram
system.tol3bus.snoop_fanout::1                  99602      0.52%    100.00% # Request fanout histogram
system.tol3bus.snoop_fanout::overflows              0      0.00%    100.00% # Request fanout histogram
system.tol3bus.snoop_fanout::min_value              0                       # Request fanout histogram
system.tol3bus.snoop_fanout::max_value              1                       # Request fanout histogram
system.tol3bus.snoop_fanout::total           19267799                       # Request fanout histogram
system.tol3bus.reqLayer0.occupancy         8247924486                       # Layer occupancy (ticks)
system.tol3bus.reqLayer0.utilization              0.5                       # Layer utilization (%)
system.tol3bus.respLayer0.occupancy        7161553944                       # Layer occupancy (ticks)
system.tol3bus.respLayer0.utilization             0.4                       # Layer utilization (%)

---------- End Simulation Statistics   ----------
