
---------- Begin Simulation Statistics ----------
sim_seconds                                  1.565324                       # Number of seconds simulated
sim_ticks                                1565324317791                       # Number of ticks simulated
final_tick                               34868702242152                       # Number of ticks from beginning of simulation (restored from checkpoints and never reset)
sim_freq                                 1000000000000                       # Frequency of simulated ticks
host_inst_rate                                 491498                       # Simulator instruction rate (inst/s)
host_op_rate                                   491498                       # Simulator op (including micro ops) rate (op/s)
host_tick_rate                              641127490                       # Simulator tick rate (ticks/s)
host_mem_usage                                2568168                       # Number of bytes of host memory used
host_seconds                                  2441.52                       # Real time elapsed on the host
sim_insts                                  1200000009                       # Number of instructions simulated
sim_ops                                    1200000009                       # Number of ops (including micro ops) simulated
system.voltage_domain.voltage                       1                       # Voltage in Volts
system.clk_domain.clock                          1000                       # Clock period in ticks
system.mem_ctrls0.pwrStateResidencyTicks::UNDEFINED 34868702242152                       # Cumulative time (in ticks) in various power states
system.mem_ctrls0.bytes_read::cpu.inst            128                       # Number of bytes read from this memory
system.mem_ctrls0.bytes_read::cpu.data            192                       # Number of bytes read from this memory
system.mem_ctrls0.bytes_read::switch_cpus.inst         8064                       # Number of bytes read from this memory
system.mem_ctrls0.bytes_read::switch_cpus.data     87136192                       # Number of bytes read from this memory
system.mem_ctrls0.bytes_read::switch_cpus_1.inst           64                       # Number of bytes read from this memory
system.mem_ctrls0.bytes_read::switch_cpus_1.data     17846784                       # Number of bytes read from this memory
system.mem_ctrls0.bytes_read::total         104991424                       # Number of bytes read from this memory
system.mem_ctrls0.bytes_inst_read::cpu.inst          128                       # Number of instructions bytes read from this memory
system.mem_ctrls0.bytes_inst_read::switch_cpus.inst         8064                       # Number of instructions bytes read from this memory
system.mem_ctrls0.bytes_inst_read::switch_cpus_1.inst           64                       # Number of instructions bytes read from this memory
system.mem_ctrls0.bytes_inst_read::total         8256                       # Number of instructions bytes read from this memory
system.mem_ctrls0.bytes_written::writebacks     35084160                       # Number of bytes written to this memory
system.mem_ctrls0.bytes_written::total       35084160                       # Number of bytes written to this memory
system.mem_ctrls0.num_reads::cpu.inst               2                       # Number of read requests responded to by this memory
system.mem_ctrls0.num_reads::cpu.data               3                       # Number of read requests responded to by this memory
system.mem_ctrls0.num_reads::switch_cpus.inst          126                       # Number of read requests responded to by this memory
system.mem_ctrls0.num_reads::switch_cpus.data      1361503                       # Number of read requests responded to by this memory
system.mem_ctrls0.num_reads::switch_cpus_1.inst            1                       # Number of read requests responded to by this memory
system.mem_ctrls0.num_reads::switch_cpus_1.data       278856                       # Number of read requests responded to by this memory
system.mem_ctrls0.num_reads::total            1640491                       # Number of read requests responded to by this memory
system.mem_ctrls0.num_writes::writebacks       548190                       # Number of write requests responded to by this memory
system.mem_ctrls0.num_writes::total            548190                       # Number of write requests responded to by this memory
system.mem_ctrls0.bw_read::cpu.inst                82                       # Total read bandwidth from this memory (bytes/s)
system.mem_ctrls0.bw_read::cpu.data               123                       # Total read bandwidth from this memory (bytes/s)
system.mem_ctrls0.bw_read::switch_cpus.inst         5152                       # Total read bandwidth from this memory (bytes/s)
system.mem_ctrls0.bw_read::switch_cpus.data     55666542                       # Total read bandwidth from this memory (bytes/s)
system.mem_ctrls0.bw_read::switch_cpus_1.inst           41                       # Total read bandwidth from this memory (bytes/s)
system.mem_ctrls0.bw_read::switch_cpus_1.data     11401333                       # Total read bandwidth from this memory (bytes/s)
system.mem_ctrls0.bw_read::total             67073272                       # Total read bandwidth from this memory (bytes/s)
system.mem_ctrls0.bw_inst_read::cpu.inst           82                       # Instruction read bandwidth from this memory (bytes/s)
system.mem_ctrls0.bw_inst_read::switch_cpus.inst         5152                       # Instruction read bandwidth from this memory (bytes/s)
system.mem_ctrls0.bw_inst_read::switch_cpus_1.inst           41                       # Instruction read bandwidth from this memory (bytes/s)
system.mem_ctrls0.bw_inst_read::total            5274                       # Instruction read bandwidth from this memory (bytes/s)
system.mem_ctrls0.bw_write::writebacks       22413349                       # Write bandwidth from this memory (bytes/s)
system.mem_ctrls0.bw_write::total            22413349                       # Write bandwidth from this memory (bytes/s)
system.mem_ctrls0.bw_total::writebacks       22413349                       # Total bandwidth to/from this memory (bytes/s)
system.mem_ctrls0.bw_total::cpu.inst               82                       # Total bandwidth to/from this memory (bytes/s)
system.mem_ctrls0.bw_total::cpu.data              123                       # Total bandwidth to/from this memory (bytes/s)
system.mem_ctrls0.bw_total::switch_cpus.inst         5152                       # Total bandwidth to/from this memory (bytes/s)
system.mem_ctrls0.bw_total::switch_cpus.data     55666542                       # Total bandwidth to/from this memory (bytes/s)
system.mem_ctrls0.bw_total::switch_cpus_1.inst           41                       # Total bandwidth to/from this memory (bytes/s)
system.mem_ctrls0.bw_total::switch_cpus_1.data     11401333                       # Total bandwidth to/from this memory (bytes/s)
system.mem_ctrls0.bw_total::total            89486621                       # Total bandwidth to/from this memory (bytes/s)
system.mem_ctrls0.readReqs                    1640491                       # Number of read requests accepted
system.mem_ctrls0.writeReqs                    548190                       # Number of write requests accepted
system.mem_ctrls0.readBursts                  1640491                       # Number of DRAM read bursts, including those serviced by the write queue
system.mem_ctrls0.writeBursts                  548190                       # Number of DRAM write bursts, including those merged in the write queue
system.mem_ctrls0.bytesReadDRAM             104977536                       # Total number of bytes read from DRAM
system.mem_ctrls0.bytesReadWrQ                  13888                       # Total number of bytes read from write queue
system.mem_ctrls0.bytesWritten               35082688                       # Total number of bytes written to DRAM
system.mem_ctrls0.bytesReadSys              104991424                       # Total read bytes from the system interface side
system.mem_ctrls0.bytesWrittenSys            35084160                       # Total written bytes from the system interface side
system.mem_ctrls0.servicedByWrQ                   217                       # Number of DRAM read bursts serviced by the write queue
system.mem_ctrls0.mergedWrBursts                    0                       # Number of DRAM write bursts merged with an existing one
system.mem_ctrls0.neitherReadNorWriteReqs            0                       # Number of requests that are neither read nor write
system.mem_ctrls0.perBankRdBursts::0           106960                       # Per bank write bursts
system.mem_ctrls0.perBankRdBursts::1           104401                       # Per bank write bursts
system.mem_ctrls0.perBankRdBursts::2           104673                       # Per bank write bursts
system.mem_ctrls0.perBankRdBursts::3           101674                       # Per bank write bursts
system.mem_ctrls0.perBankRdBursts::4           101952                       # Per bank write bursts
system.mem_ctrls0.perBankRdBursts::5           101845                       # Per bank write bursts
system.mem_ctrls0.perBankRdBursts::6           102350                       # Per bank write bursts
system.mem_ctrls0.perBankRdBursts::7           103081                       # Per bank write bursts
system.mem_ctrls0.perBankRdBursts::8           102958                       # Per bank write bursts
system.mem_ctrls0.perBankRdBursts::9           101071                       # Per bank write bursts
system.mem_ctrls0.perBankRdBursts::10          101165                       # Per bank write bursts
system.mem_ctrls0.perBankRdBursts::11          100933                       # Per bank write bursts
system.mem_ctrls0.perBankRdBursts::12          100089                       # Per bank write bursts
system.mem_ctrls0.perBankRdBursts::13          100001                       # Per bank write bursts
system.mem_ctrls0.perBankRdBursts::14          101961                       # Per bank write bursts
system.mem_ctrls0.perBankRdBursts::15          105160                       # Per bank write bursts
system.mem_ctrls0.perBankWrBursts::0            36328                       # Per bank write bursts
system.mem_ctrls0.perBankWrBursts::1            35374                       # Per bank write bursts
system.mem_ctrls0.perBankWrBursts::2            34804                       # Per bank write bursts
system.mem_ctrls0.perBankWrBursts::3            33716                       # Per bank write bursts
system.mem_ctrls0.perBankWrBursts::4            33570                       # Per bank write bursts
system.mem_ctrls0.perBankWrBursts::5            33662                       # Per bank write bursts
system.mem_ctrls0.perBankWrBursts::6            33710                       # Per bank write bursts
system.mem_ctrls0.perBankWrBursts::7            34105                       # Per bank write bursts
system.mem_ctrls0.perBankWrBursts::8            33886                       # Per bank write bursts
system.mem_ctrls0.perBankWrBursts::9            33411                       # Per bank write bursts
system.mem_ctrls0.perBankWrBursts::10           34017                       # Per bank write bursts
system.mem_ctrls0.perBankWrBursts::11           33904                       # Per bank write bursts
system.mem_ctrls0.perBankWrBursts::12           33850                       # Per bank write bursts
system.mem_ctrls0.perBankWrBursts::13           33839                       # Per bank write bursts
system.mem_ctrls0.perBankWrBursts::14           34400                       # Per bank write bursts
system.mem_ctrls0.perBankWrBursts::15           35591                       # Per bank write bursts
system.mem_ctrls0.numRdRetry                        0                       # Number of times read queue was full causing retry
system.mem_ctrls0.numWrRetry                        0                       # Number of times write queue was full causing retry
system.mem_ctrls0.totGap                 1565323815294                       # Total gap between requests
system.mem_ctrls0.readPktSize::0                    0                       # Read request sizes (log2)
system.mem_ctrls0.readPktSize::1                    0                       # Read request sizes (log2)
system.mem_ctrls0.readPktSize::2                    0                       # Read request sizes (log2)
system.mem_ctrls0.readPktSize::3                    0                       # Read request sizes (log2)
system.mem_ctrls0.readPktSize::4                    0                       # Read request sizes (log2)
system.mem_ctrls0.readPktSize::5                    0                       # Read request sizes (log2)
system.mem_ctrls0.readPktSize::6              1640491                       # Read request sizes (log2)
system.mem_ctrls0.writePktSize::0                   0                       # Write request sizes (log2)
system.mem_ctrls0.writePktSize::1                   0                       # Write request sizes (log2)
system.mem_ctrls0.writePktSize::2                   0                       # Write request sizes (log2)
system.mem_ctrls0.writePktSize::3                   0                       # Write request sizes (log2)
system.mem_ctrls0.writePktSize::4                   0                       # Write request sizes (log2)
system.mem_ctrls0.writePktSize::5                   0                       # Write request sizes (log2)
system.mem_ctrls0.writePktSize::6              548190                       # Write request sizes (log2)
system.mem_ctrls0.rdQLenPdf::0                1538575                       # What read queue length does an incoming req see
system.mem_ctrls0.rdQLenPdf::1                  89448                       # What read queue length does an incoming req see
system.mem_ctrls0.rdQLenPdf::2                  11462                       # What read queue length does an incoming req see
system.mem_ctrls0.rdQLenPdf::3                    789                       # What read queue length does an incoming req see
system.mem_ctrls0.rdQLenPdf::4                      0                       # What read queue length does an incoming req see
system.mem_ctrls0.rdQLenPdf::5                      0                       # What read queue length does an incoming req see
system.mem_ctrls0.rdQLenPdf::6                      0                       # What read queue length does an incoming req see
system.mem_ctrls0.rdQLenPdf::7                      0                       # What read queue length does an incoming req see
system.mem_ctrls0.rdQLenPdf::8                      0                       # What read queue length does an incoming req see
system.mem_ctrls0.rdQLenPdf::9                      0                       # What read queue length does an incoming req see
system.mem_ctrls0.rdQLenPdf::10                     0                       # What read queue length does an incoming req see
system.mem_ctrls0.rdQLenPdf::11                     0                       # What read queue length does an incoming req see
system.mem_ctrls0.rdQLenPdf::12                     0                       # What read queue length does an incoming req see
system.mem_ctrls0.rdQLenPdf::13                     0                       # What read queue length does an incoming req see
system.mem_ctrls0.rdQLenPdf::14                     0                       # What read queue length does an incoming req see
system.mem_ctrls0.rdQLenPdf::15                     0                       # What read queue length does an incoming req see
system.mem_ctrls0.rdQLenPdf::16                     0                       # What read queue length does an incoming req see
system.mem_ctrls0.rdQLenPdf::17                     0                       # What read queue length does an incoming req see
system.mem_ctrls0.rdQLenPdf::18                     0                       # What read queue length does an incoming req see
system.mem_ctrls0.rdQLenPdf::19                     0                       # What read queue length does an incoming req see
system.mem_ctrls0.rdQLenPdf::20                     0                       # What read queue length does an incoming req see
system.mem_ctrls0.rdQLenPdf::21                     0                       # What read queue length does an incoming req see
system.mem_ctrls0.rdQLenPdf::22                     0                       # What read queue length does an incoming req see
system.mem_ctrls0.rdQLenPdf::23                     0                       # What read queue length does an incoming req see
system.mem_ctrls0.rdQLenPdf::24                     0                       # What read queue length does an incoming req see
system.mem_ctrls0.rdQLenPdf::25                     0                       # What read queue length does an incoming req see
system.mem_ctrls0.rdQLenPdf::26                     0                       # What read queue length does an incoming req see
system.mem_ctrls0.rdQLenPdf::27                     0                       # What read queue length does an incoming req see
system.mem_ctrls0.rdQLenPdf::28                     0                       # What read queue length does an incoming req see
system.mem_ctrls0.rdQLenPdf::29                     0                       # What read queue length does an incoming req see
system.mem_ctrls0.rdQLenPdf::30                     0                       # What read queue length does an incoming req see
system.mem_ctrls0.rdQLenPdf::31                     0                       # What read queue length does an incoming req see
system.mem_ctrls0.wrQLenPdf::0                      2                       # What write queue length does an incoming req see
system.mem_ctrls0.wrQLenPdf::1                      2                       # What write queue length does an incoming req see
system.mem_ctrls0.wrQLenPdf::2                      2                       # What write queue length does an incoming req see
system.mem_ctrls0.wrQLenPdf::3                      2                       # What write queue length does an incoming req see
system.mem_ctrls0.wrQLenPdf::4                      2                       # What write queue length does an incoming req see
system.mem_ctrls0.wrQLenPdf::5                      2                       # What write queue length does an incoming req see
system.mem_ctrls0.wrQLenPdf::6                      2                       # What write queue length does an incoming req see
system.mem_ctrls0.wrQLenPdf::7                      2                       # What write queue length does an incoming req see
system.mem_ctrls0.wrQLenPdf::8                      2                       # What write queue length does an incoming req see
system.mem_ctrls0.wrQLenPdf::9                      2                       # What write queue length does an incoming req see
system.mem_ctrls0.wrQLenPdf::10                     2                       # What write queue length does an incoming req see
system.mem_ctrls0.wrQLenPdf::11                     2                       # What write queue length does an incoming req see
system.mem_ctrls0.wrQLenPdf::12                     2                       # What write queue length does an incoming req see
system.mem_ctrls0.wrQLenPdf::13                     2                       # What write queue length does an incoming req see
system.mem_ctrls0.wrQLenPdf::14                     2                       # What write queue length does an incoming req see
system.mem_ctrls0.wrQLenPdf::15                 18338                       # What write queue length does an incoming req see
system.mem_ctrls0.wrQLenPdf::16                 18902                       # What write queue length does an incoming req see
system.mem_ctrls0.wrQLenPdf::17                 30498                       # What write queue length does an incoming req see
system.mem_ctrls0.wrQLenPdf::18                 31798                       # What write queue length does an incoming req see
system.mem_ctrls0.wrQLenPdf::19                 31962                       # What write queue length does an incoming req see
system.mem_ctrls0.wrQLenPdf::20                 31991                       # What write queue length does an incoming req see
system.mem_ctrls0.wrQLenPdf::21                 31997                       # What write queue length does an incoming req see
system.mem_ctrls0.wrQLenPdf::22                 32046                       # What write queue length does an incoming req see
system.mem_ctrls0.wrQLenPdf::23                 32050                       # What write queue length does an incoming req see
system.mem_ctrls0.wrQLenPdf::24                 32042                       # What write queue length does an incoming req see
system.mem_ctrls0.wrQLenPdf::25                 32189                       # What write queue length does an incoming req see
system.mem_ctrls0.wrQLenPdf::26                 32347                       # What write queue length does an incoming req see
system.mem_ctrls0.wrQLenPdf::27                 32113                       # What write queue length does an incoming req see
system.mem_ctrls0.wrQLenPdf::28                 32091                       # What write queue length does an incoming req see
system.mem_ctrls0.wrQLenPdf::29                 31983                       # What write queue length does an incoming req see
system.mem_ctrls0.wrQLenPdf::30                 31983                       # What write queue length does an incoming req see
system.mem_ctrls0.wrQLenPdf::31                 31874                       # What write queue length does an incoming req see
system.mem_ctrls0.wrQLenPdf::32                 31862                       # What write queue length does an incoming req see
system.mem_ctrls0.wrQLenPdf::33                    86                       # What write queue length does an incoming req see
system.mem_ctrls0.wrQLenPdf::34                     7                       # What write queue length does an incoming req see
system.mem_ctrls0.wrQLenPdf::35                     1                       # What write queue length does an incoming req see
system.mem_ctrls0.wrQLenPdf::36                     0                       # What write queue length does an incoming req see
system.mem_ctrls0.wrQLenPdf::37                     0                       # What write queue length does an incoming req see
system.mem_ctrls0.wrQLenPdf::38                     0                       # What write queue length does an incoming req see
system.mem_ctrls0.wrQLenPdf::39                     0                       # What write queue length does an incoming req see
system.mem_ctrls0.wrQLenPdf::40                     0                       # What write queue length does an incoming req see
system.mem_ctrls0.wrQLenPdf::41                     0                       # What write queue length does an incoming req see
system.mem_ctrls0.wrQLenPdf::42                     0                       # What write queue length does an incoming req see
system.mem_ctrls0.wrQLenPdf::43                     0                       # What write queue length does an incoming req see
system.mem_ctrls0.wrQLenPdf::44                     0                       # What write queue length does an incoming req see
system.mem_ctrls0.wrQLenPdf::45                     0                       # What write queue length does an incoming req see
system.mem_ctrls0.wrQLenPdf::46                     0                       # What write queue length does an incoming req see
system.mem_ctrls0.wrQLenPdf::47                     0                       # What write queue length does an incoming req see
system.mem_ctrls0.wrQLenPdf::48                     0                       # What write queue length does an incoming req see
system.mem_ctrls0.wrQLenPdf::49                     0                       # What write queue length does an incoming req see
system.mem_ctrls0.wrQLenPdf::50                     0                       # What write queue length does an incoming req see
system.mem_ctrls0.wrQLenPdf::51                     0                       # What write queue length does an incoming req see
system.mem_ctrls0.wrQLenPdf::52                     0                       # What write queue length does an incoming req see
system.mem_ctrls0.wrQLenPdf::53                     0                       # What write queue length does an incoming req see
system.mem_ctrls0.wrQLenPdf::54                     0                       # What write queue length does an incoming req see
system.mem_ctrls0.wrQLenPdf::55                     0                       # What write queue length does an incoming req see
system.mem_ctrls0.wrQLenPdf::56                     0                       # What write queue length does an incoming req see
system.mem_ctrls0.wrQLenPdf::57                     0                       # What write queue length does an incoming req see
system.mem_ctrls0.wrQLenPdf::58                     0                       # What write queue length does an incoming req see
system.mem_ctrls0.wrQLenPdf::59                     0                       # What write queue length does an incoming req see
system.mem_ctrls0.wrQLenPdf::60                     0                       # What write queue length does an incoming req see
system.mem_ctrls0.wrQLenPdf::61                     0                       # What write queue length does an incoming req see
system.mem_ctrls0.wrQLenPdf::62                     0                       # What write queue length does an incoming req see
system.mem_ctrls0.wrQLenPdf::63                     0                       # What write queue length does an incoming req see
system.mem_ctrls0.bytesPerActivate::samples      1942216                       # Bytes accessed per row activation
system.mem_ctrls0.bytesPerActivate::mean    72.113586                       # Bytes accessed per row activation
system.mem_ctrls0.bytesPerActivate::gmean    68.317183                       # Bytes accessed per row activation
system.mem_ctrls0.bytesPerActivate::stdev    38.444174                       # Bytes accessed per row activation
system.mem_ctrls0.bytesPerActivate::0-127      1811752     93.28%     93.28% # Bytes accessed per row activation
system.mem_ctrls0.bytesPerActivate::128-255       100520      5.18%     98.46% # Bytes accessed per row activation
system.mem_ctrls0.bytesPerActivate::256-383        21140      1.09%     99.55% # Bytes accessed per row activation
system.mem_ctrls0.bytesPerActivate::384-511         6829      0.35%     99.90% # Bytes accessed per row activation
system.mem_ctrls0.bytesPerActivate::512-639         1585      0.08%     99.98% # Bytes accessed per row activation
system.mem_ctrls0.bytesPerActivate::640-767          323      0.02%    100.00% # Bytes accessed per row activation
system.mem_ctrls0.bytesPerActivate::768-895           51      0.00%    100.00% # Bytes accessed per row activation
system.mem_ctrls0.bytesPerActivate::896-1023           11      0.00%    100.00% # Bytes accessed per row activation
system.mem_ctrls0.bytesPerActivate::1024-1151            5      0.00%    100.00% # Bytes accessed per row activation
system.mem_ctrls0.bytesPerActivate::total      1942216                       # Bytes accessed per row activation
system.mem_ctrls0.rdPerTurnAround::samples        31841                       # Reads before turning the bus around for writes
system.mem_ctrls0.rdPerTurnAround::mean     51.513991                       # Reads before turning the bus around for writes
system.mem_ctrls0.rdPerTurnAround::gmean    48.802082                       # Reads before turning the bus around for writes
system.mem_ctrls0.rdPerTurnAround::stdev   115.499264                       # Reads before turning the bus around for writes
system.mem_ctrls0.rdPerTurnAround::0-1023        31836     99.98%     99.98% # Reads before turning the bus around for writes
system.mem_ctrls0.rdPerTurnAround::1024-2047            3      0.01%     99.99% # Reads before turning the bus around for writes
system.mem_ctrls0.rdPerTurnAround::2048-3071            1      0.00%    100.00% # Reads before turning the bus around for writes
system.mem_ctrls0.rdPerTurnAround::19456-20479            1      0.00%    100.00% # Reads before turning the bus around for writes
system.mem_ctrls0.rdPerTurnAround::total        31841                       # Reads before turning the bus around for writes
system.mem_ctrls0.wrPerTurnAround::samples        31841                       # Writes before turning the bus around for reads
system.mem_ctrls0.wrPerTurnAround::mean     17.215760                       # Writes before turning the bus around for reads
system.mem_ctrls0.wrPerTurnAround::gmean    17.184114                       # Writes before turning the bus around for reads
system.mem_ctrls0.wrPerTurnAround::stdev     1.039541                       # Writes before turning the bus around for reads
system.mem_ctrls0.wrPerTurnAround::15               1      0.00%      0.00% # Writes before turning the bus around for reads
system.mem_ctrls0.wrPerTurnAround::16           12975     40.75%     40.75% # Writes before turning the bus around for reads
system.mem_ctrls0.wrPerTurnAround::17             452      1.42%     42.17% # Writes before turning the bus around for reads
system.mem_ctrls0.wrPerTurnAround::18           17067     53.60%     95.77% # Writes before turning the bus around for reads
system.mem_ctrls0.wrPerTurnAround::19            1266      3.98%     99.75% # Writes before turning the bus around for reads
system.mem_ctrls0.wrPerTurnAround::20              74      0.23%     99.98% # Writes before turning the bus around for reads
system.mem_ctrls0.wrPerTurnAround::21               4      0.01%     99.99% # Writes before turning the bus around for reads
system.mem_ctrls0.wrPerTurnAround::22               2      0.01%    100.00% # Writes before turning the bus around for reads
system.mem_ctrls0.wrPerTurnAround::total        31841                       # Writes before turning the bus around for reads
system.mem_ctrls0.totQLat                 86567275322                       # Total ticks spent queuing
system.mem_ctrls0.totMemAccLat           117322412822                       # Total ticks spent from burst creation until serviced by the DRAM
system.mem_ctrls0.totBusLat                8201370000                       # Total ticks spent in databus transfers
system.mem_ctrls0.avgQLat                    52776.11                       # Average queueing delay per DRAM burst
system.mem_ctrls0.avgBusLat                   5000.00                       # Average bus latency per DRAM burst
system.mem_ctrls0.avgMemAccLat               71526.11                       # Average memory access latency per DRAM burst
system.mem_ctrls0.avgRdBW                       67.06                       # Average DRAM read bandwidth in MiByte/s
system.mem_ctrls0.avgWrBW                       22.41                       # Average achieved write bandwidth in MiByte/s
system.mem_ctrls0.avgRdBWSys                    67.07                       # Average system read bandwidth in MiByte/s
system.mem_ctrls0.avgWrBWSys                    22.41                       # Average system write bandwidth in MiByte/s
system.mem_ctrls0.peakBW                     12800.00                       # Theoretical peak bandwidth in MiByte/s
system.mem_ctrls0.busUtil                        0.70                       # Data bus utilization in percentage
system.mem_ctrls0.busUtilRead                    0.52                       # Data bus utilization in percentage for reads
system.mem_ctrls0.busUtilWrite                   0.18                       # Data bus utilization in percentage for writes
system.mem_ctrls0.avgRdQLen                      1.01                       # Average read queue length when enqueuing
system.mem_ctrls0.avgWrQLen                     24.40                       # Average write queue length when enqueuing
system.mem_ctrls0.readRowHits                   33011                       # Number of row buffer hits during reads
system.mem_ctrls0.writeRowHits                 213213                       # Number of row buffer hits during writes
system.mem_ctrls0.readRowHitRate                 2.01                       # Row buffer hit rate for reads
system.mem_ctrls0.writeRowHitRate               38.89                       # Row buffer hit rate for writes
system.mem_ctrls0.avgGap                    715190.48                       # Average gap between requests
system.mem_ctrls0.pageHitRate                   11.25                       # Row buffer hit rate, read and write combined
system.mem_ctrls0_0.actEnergy              6984797820                       # Energy for activate commands per rank (pJ)
system.mem_ctrls0_0.preEnergy              3712504290                       # Energy for precharge commands per rank (pJ)
system.mem_ctrls0_0.readEnergy             5904323040                       # Energy for read commands per rank (pJ)
system.mem_ctrls0_0.writeEnergy            1436904180                       # Energy for write commands per rank (pJ)
system.mem_ctrls0_0.refreshEnergy        124866574560.000031                       # Energy for refresh commands per rank (pJ)
system.mem_ctrls0_0.actBackEnergy         64725046410                       # Energy for active background per rank (pJ)
system.mem_ctrls0_0.preBackEnergy          6330449760                       # Energy for precharge background per rank (pJ)
system.mem_ctrls0_0.actPowerDownEnergy   347232037410                       # Energy for active power-down per rank (pJ)
system.mem_ctrls0_0.prePowerDownEnergy   169287656160                       # Energy for precharge power-down per rank (pJ)
system.mem_ctrls0_0.selfRefreshEnergy     65944536075                       # Energy for self refresh per rank (pJ)
system.mem_ctrls0_0.totalEnergy          796465360125                       # Total energy per rank (pJ)
system.mem_ctrls0_0.averagePower           508.818102                       # Core power per rank (mW)
system.mem_ctrls0_0.totalIdleTime        1406809166167                       # Total Idle time Per DRAM Rank
system.mem_ctrls0_0.memoryStateTime::IDLE   8930561890                       # Time in different power states
system.mem_ctrls0_0.memoryStateTime::REF  53006814000                       # Time in different power states
system.mem_ctrls0_0.memoryStateTime::SREF 204480757042                       # Time in different power states
system.mem_ctrls0_0.memoryStateTime::PRE_PDN 440852816466                       # Time in different power states
system.mem_ctrls0_0.memoryStateTime::ACT  96577326056                       # Time in different power states
system.mem_ctrls0_0.memoryStateTime::ACT_PDN 761476042337                       # Time in different power states
system.mem_ctrls0_1.actEnergy              6882631560                       # Energy for activate commands per rank (pJ)
system.mem_ctrls0_1.preEnergy              3658205430                       # Energy for precharge commands per rank (pJ)
system.mem_ctrls0_1.readEnergy             5807233320                       # Energy for read commands per rank (pJ)
system.mem_ctrls0_1.writeEnergy            1424527560                       # Energy for write commands per rank (pJ)
system.mem_ctrls0_1.refreshEnergy        126298071120.000031                       # Energy for refresh commands per rank (pJ)
system.mem_ctrls0_1.actBackEnergy         63826939020                       # Energy for active background per rank (pJ)
system.mem_ctrls0_1.preBackEnergy          6016559040                       # Energy for precharge background per rank (pJ)
system.mem_ctrls0_1.actPowerDownEnergy   358741252260                       # Energy for active power-down per rank (pJ)
system.mem_ctrls0_1.prePowerDownEnergy   173355833280                       # Energy for precharge power-down per rank (pJ)
system.mem_ctrls0_1.selfRefreshEnergy     56883123510                       # Energy for self refresh per rank (pJ)
system.mem_ctrls0_1.totalEnergy          802954351170                       # Total energy per rank (pJ)
system.mem_ctrls0_1.averagePower           512.963565                       # Core power per rank (mW)
system.mem_ctrls0_1.totalIdleTime        1409550037033                       # Total Idle time Per DRAM Rank
system.mem_ctrls0_1.memoryStateTime::IDLE   8450348371                       # Time in different power states
system.mem_ctrls0_1.memoryStateTime::REF  53601698000                       # Time in different power states
system.mem_ctrls0_1.memoryStateTime::SREF 171390511977                       # Time in different power states
system.mem_ctrls0_1.memoryStateTime::PRE_PDN 451448444674                       # Time in different power states
system.mem_ctrls0_1.memoryStateTime::ACT  93722113573                       # Time in different power states
system.mem_ctrls0_1.memoryStateTime::ACT_PDN 786711201196                       # Time in different power states
system.mem_ctrls1.pwrStateResidencyTicks::UNDEFINED 34868702242152                       # Cumulative time (in ticks) in various power states
system.mem_ctrls1.bytes_read::cpu.inst             64                       # Number of bytes read from this memory
system.mem_ctrls1.bytes_read::cpu.data            192                       # Number of bytes read from this memory
system.mem_ctrls1.bytes_read::switch_cpus.inst         8128                       # Number of bytes read from this memory
system.mem_ctrls1.bytes_read::switch_cpus.data     87080064                       # Number of bytes read from this memory
system.mem_ctrls1.bytes_read::switch_cpus_1.data     17828928                       # Number of bytes read from this memory
system.mem_ctrls1.bytes_read::total         104917376                       # Number of bytes read from this memory
system.mem_ctrls1.bytes_inst_read::cpu.inst           64                       # Number of instructions bytes read from this memory
system.mem_ctrls1.bytes_inst_read::switch_cpus.inst         8128                       # Number of instructions bytes read from this memory
system.mem_ctrls1.bytes_inst_read::total         8192                       # Number of instructions bytes read from this memory
system.mem_ctrls1.bytes_written::writebacks     35072512                       # Number of bytes written to this memory
system.mem_ctrls1.bytes_written::total       35072512                       # Number of bytes written to this memory
system.mem_ctrls1.num_reads::cpu.inst               1                       # Number of read requests responded to by this memory
system.mem_ctrls1.num_reads::cpu.data               3                       # Number of read requests responded to by this memory
system.mem_ctrls1.num_reads::switch_cpus.inst          127                       # Number of read requests responded to by this memory
system.mem_ctrls1.num_reads::switch_cpus.data      1360626                       # Number of read requests responded to by this memory
system.mem_ctrls1.num_reads::switch_cpus_1.data       278577                       # Number of read requests responded to by this memory
system.mem_ctrls1.num_reads::total            1639334                       # Number of read requests responded to by this memory
system.mem_ctrls1.num_writes::writebacks       548008                       # Number of write requests responded to by this memory
system.mem_ctrls1.num_writes::total            548008                       # Number of write requests responded to by this memory
system.mem_ctrls1.bw_read::cpu.inst                41                       # Total read bandwidth from this memory (bytes/s)
system.mem_ctrls1.bw_read::cpu.data               123                       # Total read bandwidth from this memory (bytes/s)
system.mem_ctrls1.bw_read::switch_cpus.inst         5193                       # Total read bandwidth from this memory (bytes/s)
system.mem_ctrls1.bw_read::switch_cpus.data     55630685                       # Total read bandwidth from this memory (bytes/s)
system.mem_ctrls1.bw_read::switch_cpus_1.data     11389926                       # Total read bandwidth from this memory (bytes/s)
system.mem_ctrls1.bw_read::total             67025967                       # Total read bandwidth from this memory (bytes/s)
system.mem_ctrls1.bw_inst_read::cpu.inst           41                       # Instruction read bandwidth from this memory (bytes/s)
system.mem_ctrls1.bw_inst_read::switch_cpus.inst         5193                       # Instruction read bandwidth from this memory (bytes/s)
system.mem_ctrls1.bw_inst_read::total            5233                       # Instruction read bandwidth from this memory (bytes/s)
system.mem_ctrls1.bw_write::writebacks       22405908                       # Write bandwidth from this memory (bytes/s)
system.mem_ctrls1.bw_write::total            22405908                       # Write bandwidth from this memory (bytes/s)
system.mem_ctrls1.bw_total::writebacks       22405908                       # Total bandwidth to/from this memory (bytes/s)
system.mem_ctrls1.bw_total::cpu.inst               41                       # Total bandwidth to/from this memory (bytes/s)
system.mem_ctrls1.bw_total::cpu.data              123                       # Total bandwidth to/from this memory (bytes/s)
system.mem_ctrls1.bw_total::switch_cpus.inst         5193                       # Total bandwidth to/from this memory (bytes/s)
system.mem_ctrls1.bw_total::switch_cpus.data     55630685                       # Total bandwidth to/from this memory (bytes/s)
system.mem_ctrls1.bw_total::switch_cpus_1.data     11389926                       # Total bandwidth to/from this memory (bytes/s)
system.mem_ctrls1.bw_total::total            89431875                       # Total bandwidth to/from this memory (bytes/s)
system.mem_ctrls1.readReqs                    1639334                       # Number of read requests accepted
system.mem_ctrls1.writeReqs                    548008                       # Number of write requests accepted
system.mem_ctrls1.readBursts                  1639334                       # Number of DRAM read bursts, including those serviced by the write queue
system.mem_ctrls1.writeBursts                  548008                       # Number of DRAM write bursts, including those merged in the write queue
system.mem_ctrls1.bytesReadDRAM             104901568                       # Total number of bytes read from DRAM
system.mem_ctrls1.bytesReadWrQ                  15808                       # Total number of bytes read from write queue
system.mem_ctrls1.bytesWritten               35071424                       # Total number of bytes written to DRAM
system.mem_ctrls1.bytesReadSys              104917376                       # Total read bytes from the system interface side
system.mem_ctrls1.bytesWrittenSys            35072512                       # Total written bytes from the system interface side
system.mem_ctrls1.servicedByWrQ                   247                       # Number of DRAM read bursts serviced by the write queue
system.mem_ctrls1.mergedWrBursts                    0                       # Number of DRAM write bursts merged with an existing one
system.mem_ctrls1.neitherReadNorWriteReqs            0                       # Number of requests that are neither read nor write
system.mem_ctrls1.perBankRdBursts::0           107063                       # Per bank write bursts
system.mem_ctrls1.perBankRdBursts::1           104595                       # Per bank write bursts
system.mem_ctrls1.perBankRdBursts::2           104630                       # Per bank write bursts
system.mem_ctrls1.perBankRdBursts::3           101520                       # Per bank write bursts
system.mem_ctrls1.perBankRdBursts::4           101399                       # Per bank write bursts
system.mem_ctrls1.perBankRdBursts::5           101726                       # Per bank write bursts
system.mem_ctrls1.perBankRdBursts::6           102411                       # Per bank write bursts
system.mem_ctrls1.perBankRdBursts::7           102964                       # Per bank write bursts
system.mem_ctrls1.perBankRdBursts::8           102853                       # Per bank write bursts
system.mem_ctrls1.perBankRdBursts::9           101249                       # Per bank write bursts
system.mem_ctrls1.perBankRdBursts::10          101158                       # Per bank write bursts
system.mem_ctrls1.perBankRdBursts::11          100668                       # Per bank write bursts
system.mem_ctrls1.perBankRdBursts::12           99857                       # Per bank write bursts
system.mem_ctrls1.perBankRdBursts::13           99856                       # Per bank write bursts
system.mem_ctrls1.perBankRdBursts::14          101922                       # Per bank write bursts
system.mem_ctrls1.perBankRdBursts::15          105216                       # Per bank write bursts
system.mem_ctrls1.perBankWrBursts::0            36373                       # Per bank write bursts
system.mem_ctrls1.perBankWrBursts::1            35397                       # Per bank write bursts
system.mem_ctrls1.perBankWrBursts::2            34783                       # Per bank write bursts
system.mem_ctrls1.perBankWrBursts::3            33628                       # Per bank write bursts
system.mem_ctrls1.perBankWrBursts::4            33502                       # Per bank write bursts
system.mem_ctrls1.perBankWrBursts::5            33675                       # Per bank write bursts
system.mem_ctrls1.perBankWrBursts::6            33714                       # Per bank write bursts
system.mem_ctrls1.perBankWrBursts::7            34053                       # Per bank write bursts
system.mem_ctrls1.perBankWrBursts::8            33852                       # Per bank write bursts
system.mem_ctrls1.perBankWrBursts::9            33423                       # Per bank write bursts
system.mem_ctrls1.perBankWrBursts::10           34059                       # Per bank write bursts
system.mem_ctrls1.perBankWrBursts::11           33850                       # Per bank write bursts
system.mem_ctrls1.perBankWrBursts::12           33811                       # Per bank write bursts
system.mem_ctrls1.perBankWrBursts::13           33819                       # Per bank write bursts
system.mem_ctrls1.perBankWrBursts::14           34463                       # Per bank write bursts
system.mem_ctrls1.perBankWrBursts::15           35589                       # Per bank write bursts
system.mem_ctrls1.numRdRetry                        0                       # Number of times read queue was full causing retry
system.mem_ctrls1.numWrRetry                        0                       # Number of times write queue was full causing retry
system.mem_ctrls1.totGap                 1565323730712                       # Total gap between requests
system.mem_ctrls1.readPktSize::0                    0                       # Read request sizes (log2)
system.mem_ctrls1.readPktSize::1                    0                       # Read request sizes (log2)
system.mem_ctrls1.readPktSize::2                    0                       # Read request sizes (log2)
system.mem_ctrls1.readPktSize::3                    0                       # Read request sizes (log2)
system.mem_ctrls1.readPktSize::4                    0                       # Read request sizes (log2)
system.mem_ctrls1.readPktSize::5                    0                       # Read request sizes (log2)
system.mem_ctrls1.readPktSize::6              1639334                       # Read request sizes (log2)
system.mem_ctrls1.writePktSize::0                   0                       # Write request sizes (log2)
system.mem_ctrls1.writePktSize::1                   0                       # Write request sizes (log2)
system.mem_ctrls1.writePktSize::2                   0                       # Write request sizes (log2)
system.mem_ctrls1.writePktSize::3                   0                       # Write request sizes (log2)
system.mem_ctrls1.writePktSize::4                   0                       # Write request sizes (log2)
system.mem_ctrls1.writePktSize::5                   0                       # Write request sizes (log2)
system.mem_ctrls1.writePktSize::6              548008                       # Write request sizes (log2)
system.mem_ctrls1.rdQLenPdf::0                1538336                       # What read queue length does an incoming req see
system.mem_ctrls1.rdQLenPdf::1                  89208                       # What read queue length does an incoming req see
system.mem_ctrls1.rdQLenPdf::2                  10928                       # What read queue length does an incoming req see
system.mem_ctrls1.rdQLenPdf::3                    615                       # What read queue length does an incoming req see
system.mem_ctrls1.rdQLenPdf::4                      0                       # What read queue length does an incoming req see
system.mem_ctrls1.rdQLenPdf::5                      0                       # What read queue length does an incoming req see
system.mem_ctrls1.rdQLenPdf::6                      0                       # What read queue length does an incoming req see
system.mem_ctrls1.rdQLenPdf::7                      0                       # What read queue length does an incoming req see
system.mem_ctrls1.rdQLenPdf::8                      0                       # What read queue length does an incoming req see
system.mem_ctrls1.rdQLenPdf::9                      0                       # What read queue length does an incoming req see
system.mem_ctrls1.rdQLenPdf::10                     0                       # What read queue length does an incoming req see
system.mem_ctrls1.rdQLenPdf::11                     0                       # What read queue length does an incoming req see
system.mem_ctrls1.rdQLenPdf::12                     0                       # What read queue length does an incoming req see
system.mem_ctrls1.rdQLenPdf::13                     0                       # What read queue length does an incoming req see
system.mem_ctrls1.rdQLenPdf::14                     0                       # What read queue length does an incoming req see
system.mem_ctrls1.rdQLenPdf::15                     0                       # What read queue length does an incoming req see
system.mem_ctrls1.rdQLenPdf::16                     0                       # What read queue length does an incoming req see
system.mem_ctrls1.rdQLenPdf::17                     0                       # What read queue length does an incoming req see
system.mem_ctrls1.rdQLenPdf::18                     0                       # What read queue length does an incoming req see
system.mem_ctrls1.rdQLenPdf::19                     0                       # What read queue length does an incoming req see
system.mem_ctrls1.rdQLenPdf::20                     0                       # What read queue length does an incoming req see
system.mem_ctrls1.rdQLenPdf::21                     0                       # What read queue length does an incoming req see
system.mem_ctrls1.rdQLenPdf::22                     0                       # What read queue length does an incoming req see
system.mem_ctrls1.rdQLenPdf::23                     0                       # What read queue length does an incoming req see
system.mem_ctrls1.rdQLenPdf::24                     0                       # What read queue length does an incoming req see
system.mem_ctrls1.rdQLenPdf::25                     0                       # What read queue length does an incoming req see
system.mem_ctrls1.rdQLenPdf::26                     0                       # What read queue length does an incoming req see
system.mem_ctrls1.rdQLenPdf::27                     0                       # What read queue length does an incoming req see
system.mem_ctrls1.rdQLenPdf::28                     0                       # What read queue length does an incoming req see
system.mem_ctrls1.rdQLenPdf::29                     0                       # What read queue length does an incoming req see
system.mem_ctrls1.rdQLenPdf::30                     0                       # What read queue length does an incoming req see
system.mem_ctrls1.rdQLenPdf::31                     0                       # What read queue length does an incoming req see
system.mem_ctrls1.wrQLenPdf::0                      2                       # What write queue length does an incoming req see
system.mem_ctrls1.wrQLenPdf::1                      2                       # What write queue length does an incoming req see
system.mem_ctrls1.wrQLenPdf::2                      2                       # What write queue length does an incoming req see
system.mem_ctrls1.wrQLenPdf::3                      2                       # What write queue length does an incoming req see
system.mem_ctrls1.wrQLenPdf::4                      2                       # What write queue length does an incoming req see
system.mem_ctrls1.wrQLenPdf::5                      2                       # What write queue length does an incoming req see
system.mem_ctrls1.wrQLenPdf::6                      2                       # What write queue length does an incoming req see
system.mem_ctrls1.wrQLenPdf::7                      2                       # What write queue length does an incoming req see
system.mem_ctrls1.wrQLenPdf::8                      2                       # What write queue length does an incoming req see
system.mem_ctrls1.wrQLenPdf::9                      2                       # What write queue length does an incoming req see
system.mem_ctrls1.wrQLenPdf::10                     2                       # What write queue length does an incoming req see
system.mem_ctrls1.wrQLenPdf::11                     2                       # What write queue length does an incoming req see
system.mem_ctrls1.wrQLenPdf::12                     2                       # What write queue length does an incoming req see
system.mem_ctrls1.wrQLenPdf::13                     2                       # What write queue length does an incoming req see
system.mem_ctrls1.wrQLenPdf::14                     2                       # What write queue length does an incoming req see
system.mem_ctrls1.wrQLenPdf::15                 18259                       # What write queue length does an incoming req see
system.mem_ctrls1.wrQLenPdf::16                 18799                       # What write queue length does an incoming req see
system.mem_ctrls1.wrQLenPdf::17                 30504                       # What write queue length does an incoming req see
system.mem_ctrls1.wrQLenPdf::18                 31815                       # What write queue length does an incoming req see
system.mem_ctrls1.wrQLenPdf::19                 31983                       # What write queue length does an incoming req see
system.mem_ctrls1.wrQLenPdf::20                 32002                       # What write queue length does an incoming req see
system.mem_ctrls1.wrQLenPdf::21                 31985                       # What write queue length does an incoming req see
system.mem_ctrls1.wrQLenPdf::22                 32050                       # What write queue length does an incoming req see
system.mem_ctrls1.wrQLenPdf::23                 32077                       # What write queue length does an incoming req see
system.mem_ctrls1.wrQLenPdf::24                 32030                       # What write queue length does an incoming req see
system.mem_ctrls1.wrQLenPdf::25                 32179                       # What write queue length does an incoming req see
system.mem_ctrls1.wrQLenPdf::26                 32341                       # What write queue length does an incoming req see
system.mem_ctrls1.wrQLenPdf::27                 32067                       # What write queue length does an incoming req see
system.mem_ctrls1.wrQLenPdf::28                 32054                       # What write queue length does an incoming req see
system.mem_ctrls1.wrQLenPdf::29                 32019                       # What write queue length does an incoming req see
system.mem_ctrls1.wrQLenPdf::30                 31964                       # What write queue length does an incoming req see
system.mem_ctrls1.wrQLenPdf::31                 31876                       # What write queue length does an incoming req see
system.mem_ctrls1.wrQLenPdf::32                 31862                       # What write queue length does an incoming req see
system.mem_ctrls1.wrQLenPdf::33                   101                       # What write queue length does an incoming req see
system.mem_ctrls1.wrQLenPdf::34                    10                       # What write queue length does an incoming req see
system.mem_ctrls1.wrQLenPdf::35                     1                       # What write queue length does an incoming req see
system.mem_ctrls1.wrQLenPdf::36                     0                       # What write queue length does an incoming req see
system.mem_ctrls1.wrQLenPdf::37                     0                       # What write queue length does an incoming req see
system.mem_ctrls1.wrQLenPdf::38                     0                       # What write queue length does an incoming req see
system.mem_ctrls1.wrQLenPdf::39                     0                       # What write queue length does an incoming req see
system.mem_ctrls1.wrQLenPdf::40                     0                       # What write queue length does an incoming req see
system.mem_ctrls1.wrQLenPdf::41                     0                       # What write queue length does an incoming req see
system.mem_ctrls1.wrQLenPdf::42                     0                       # What write queue length does an incoming req see
system.mem_ctrls1.wrQLenPdf::43                     0                       # What write queue length does an incoming req see
system.mem_ctrls1.wrQLenPdf::44                     0                       # What write queue length does an incoming req see
system.mem_ctrls1.wrQLenPdf::45                     0                       # What write queue length does an incoming req see
system.mem_ctrls1.wrQLenPdf::46                     0                       # What write queue length does an incoming req see
system.mem_ctrls1.wrQLenPdf::47                     0                       # What write queue length does an incoming req see
system.mem_ctrls1.wrQLenPdf::48                     0                       # What write queue length does an incoming req see
system.mem_ctrls1.wrQLenPdf::49                     0                       # What write queue length does an incoming req see
system.mem_ctrls1.wrQLenPdf::50                     0                       # What write queue length does an incoming req see
system.mem_ctrls1.wrQLenPdf::51                     0                       # What write queue length does an incoming req see
system.mem_ctrls1.wrQLenPdf::52                     0                       # What write queue length does an incoming req see
system.mem_ctrls1.wrQLenPdf::53                     0                       # What write queue length does an incoming req see
system.mem_ctrls1.wrQLenPdf::54                     0                       # What write queue length does an incoming req see
system.mem_ctrls1.wrQLenPdf::55                     0                       # What write queue length does an incoming req see
system.mem_ctrls1.wrQLenPdf::56                     0                       # What write queue length does an incoming req see
system.mem_ctrls1.wrQLenPdf::57                     0                       # What write queue length does an incoming req see
system.mem_ctrls1.wrQLenPdf::58                     0                       # What write queue length does an incoming req see
system.mem_ctrls1.wrQLenPdf::59                     0                       # What write queue length does an incoming req see
system.mem_ctrls1.wrQLenPdf::60                     0                       # What write queue length does an incoming req see
system.mem_ctrls1.wrQLenPdf::61                     0                       # What write queue length does an incoming req see
system.mem_ctrls1.wrQLenPdf::62                     0                       # What write queue length does an incoming req see
system.mem_ctrls1.wrQLenPdf::63                     0                       # What write queue length does an incoming req see
system.mem_ctrls1.bytesPerActivate::samples      1942213                       # Bytes accessed per row activation
system.mem_ctrls1.bytesPerActivate::mean    72.068487                       # Bytes accessed per row activation
system.mem_ctrls1.bytesPerActivate::gmean    68.293892                       # Bytes accessed per row activation
system.mem_ctrls1.bytesPerActivate::stdev    38.302001                       # Bytes accessed per row activation
system.mem_ctrls1.bytesPerActivate::0-127      1812401     93.32%     93.32% # Bytes accessed per row activation
system.mem_ctrls1.bytesPerActivate::128-255        99893      5.14%     98.46% # Bytes accessed per row activation
system.mem_ctrls1.bytesPerActivate::256-383        21276      1.10%     99.55% # Bytes accessed per row activation
system.mem_ctrls1.bytesPerActivate::384-511         6701      0.35%     99.90% # Bytes accessed per row activation
system.mem_ctrls1.bytesPerActivate::512-639         1557      0.08%     99.98% # Bytes accessed per row activation
system.mem_ctrls1.bytesPerActivate::640-767          319      0.02%    100.00% # Bytes accessed per row activation
system.mem_ctrls1.bytesPerActivate::768-895           49      0.00%    100.00% # Bytes accessed per row activation
system.mem_ctrls1.bytesPerActivate::896-1023           11      0.00%    100.00% # Bytes accessed per row activation
system.mem_ctrls1.bytesPerActivate::1024-1151            6      0.00%    100.00% # Bytes accessed per row activation
system.mem_ctrls1.bytesPerActivate::total      1942213                       # Bytes accessed per row activation
system.mem_ctrls1.rdPerTurnAround::samples        31840                       # Reads before turning the bus around for writes
system.mem_ctrls1.rdPerTurnAround::mean     51.478832                       # Reads before turning the bus around for writes
system.mem_ctrls1.rdPerTurnAround::gmean    48.797720                       # Reads before turning the bus around for writes
system.mem_ctrls1.rdPerTurnAround::stdev   115.562134                       # Reads before turning the bus around for writes
system.mem_ctrls1.rdPerTurnAround::0-1023        31836     99.99%     99.99% # Reads before turning the bus around for writes
system.mem_ctrls1.rdPerTurnAround::1024-2047            2      0.01%     99.99% # Reads before turning the bus around for writes
system.mem_ctrls1.rdPerTurnAround::2048-3071            1      0.00%    100.00% # Reads before turning the bus around for writes
system.mem_ctrls1.rdPerTurnAround::19456-20479            1      0.00%    100.00% # Reads before turning the bus around for writes
system.mem_ctrls1.rdPerTurnAround::total        31840                       # Reads before turning the bus around for writes
system.mem_ctrls1.wrPerTurnAround::samples        31840                       # Writes before turning the bus around for reads
system.mem_ctrls1.wrPerTurnAround::mean     17.210773                       # Writes before turning the bus around for reads
system.mem_ctrls1.wrPerTurnAround::gmean    17.179040                       # Writes before turning the bus around for reads
system.mem_ctrls1.wrPerTurnAround::stdev     1.041078                       # Writes before turning the bus around for reads
system.mem_ctrls1.wrPerTurnAround::16           13065     41.03%     41.03% # Writes before turning the bus around for reads
system.mem_ctrls1.wrPerTurnAround::17             444      1.39%     42.43% # Writes before turning the bus around for reads
system.mem_ctrls1.wrPerTurnAround::18           16966     53.29%     95.71% # Writes before turning the bus around for reads
system.mem_ctrls1.wrPerTurnAround::19            1295      4.07%     99.78% # Writes before turning the bus around for reads
system.mem_ctrls1.wrPerTurnAround::20              65      0.20%     99.98% # Writes before turning the bus around for reads
system.mem_ctrls1.wrPerTurnAround::21               1      0.00%     99.99% # Writes before turning the bus around for reads
system.mem_ctrls1.wrPerTurnAround::22               3      0.01%    100.00% # Writes before turning the bus around for reads
system.mem_ctrls1.wrPerTurnAround::23               1      0.00%    100.00% # Writes before turning the bus around for reads
system.mem_ctrls1.wrPerTurnAround::total        31840                       # Writes before turning the bus around for reads
system.mem_ctrls1.totQLat                 86461257405                       # Total ticks spent queuing
system.mem_ctrls1.totMemAccLat           117194138655                       # Total ticks spent from burst creation until serviced by the DRAM
system.mem_ctrls1.totBusLat                8195435000                       # Total ticks spent in databus transfers
system.mem_ctrls1.avgQLat                    52749.65                       # Average queueing delay per DRAM burst
system.mem_ctrls1.avgBusLat                   5000.00                       # Average bus latency per DRAM burst
system.mem_ctrls1.avgMemAccLat               71499.65                       # Average memory access latency per DRAM burst
system.mem_ctrls1.avgRdBW                       67.02                       # Average DRAM read bandwidth in MiByte/s
system.mem_ctrls1.avgWrBW                       22.41                       # Average achieved write bandwidth in MiByte/s
system.mem_ctrls1.avgRdBWSys                    67.03                       # Average system read bandwidth in MiByte/s
system.mem_ctrls1.avgWrBWSys                    22.41                       # Average system write bandwidth in MiByte/s
system.mem_ctrls1.peakBW                     12800.00                       # Theoretical peak bandwidth in MiByte/s
system.mem_ctrls1.busUtil                        0.70                       # Data bus utilization in percentage
system.mem_ctrls1.busUtilRead                    0.52                       # Data bus utilization in percentage for reads
system.mem_ctrls1.busUtilWrite                   0.18                       # Data bus utilization in percentage for writes
system.mem_ctrls1.avgRdQLen                      1.01                       # Average read queue length when enqueuing
system.mem_ctrls1.avgWrQLen                     24.40                       # Average write queue length when enqueuing
system.mem_ctrls1.readRowHits                   32774                       # Number of row buffer hits during reads
system.mem_ctrls1.writeRowHits                 212081                       # Number of row buffer hits during writes
system.mem_ctrls1.readRowHitRate                 2.00                       # Row buffer hit rate for reads
system.mem_ctrls1.writeRowHitRate               38.70                       # Row buffer hit rate for writes
system.mem_ctrls1.avgGap                    715628.25                       # Average gap between requests
system.mem_ctrls1.pageHitRate                   11.20                       # Row buffer hit rate, read and write combined
system.mem_ctrls1_0.actEnergy              6982827180                       # Energy for activate commands per rank (pJ)
system.mem_ctrls1_0.preEnergy              3711445485                       # Energy for precharge commands per rank (pJ)
system.mem_ctrls1_0.readEnergy             5899839120                       # Energy for read commands per rank (pJ)
system.mem_ctrls1_0.writeEnergy            1436152500                       # Energy for write commands per rank (pJ)
system.mem_ctrls1_0.refreshEnergy        124822320480.000031                       # Energy for refresh commands per rank (pJ)
system.mem_ctrls1_0.actBackEnergy         64604609400                       # Energy for active background per rank (pJ)
system.mem_ctrls1_0.preBackEnergy          6335342400                       # Energy for precharge background per rank (pJ)
system.mem_ctrls1_0.actPowerDownEnergy   347629553700                       # Energy for active power-down per rank (pJ)
system.mem_ctrls1_0.prePowerDownEnergy   168681034560                       # Energy for precharge power-down per rank (pJ)
system.mem_ctrls1_0.selfRefreshEnergy     66205539240                       # Energy for self refresh per rank (pJ)
system.mem_ctrls1_0.totalEnergy          796349723625                       # Total energy per rank (pJ)
system.mem_ctrls1_0.averagePower           508.744227                       # Core power per rank (mW)
system.mem_ctrls1_0.totalIdleTime        1407054511360                       # Total Idle time Per DRAM Rank
system.mem_ctrls1_0.memoryStateTime::IDLE   8945727725                       # Time in different power states
system.mem_ctrls1_0.memoryStateTime::REF  52988868000                       # Time in different power states
system.mem_ctrls1_0.memoryStateTime::SREF 205438677581                       # Time in different power states
system.mem_ctrls1_0.memoryStateTime::PRE_PDN 439271537704                       # Time in different power states
system.mem_ctrls1_0.memoryStateTime::ACT  96335210706                       # Time in different power states
system.mem_ctrls1_0.memoryStateTime::ACT_PDN 762344296075                       # Time in different power states
system.mem_ctrls1_1.actEnergy              6884645040                       # Energy for activate commands per rank (pJ)
system.mem_ctrls1_1.preEnergy              3659252850                       # Energy for precharge commands per rank (pJ)
system.mem_ctrls1_1.readEnergy             5803242060                       # Energy for read commands per rank (pJ)
system.mem_ctrls1_1.writeEnergy            1424360520                       # Energy for write commands per rank (pJ)
system.mem_ctrls1_1.refreshEnergy        126263036640.000031                       # Energy for refresh commands per rank (pJ)
system.mem_ctrls1_1.actBackEnergy         63738895680                       # Energy for active background per rank (pJ)
system.mem_ctrls1_1.preBackEnergy          6008267520                       # Energy for precharge background per rank (pJ)
system.mem_ctrls1_1.actPowerDownEnergy   358585984260                       # Energy for active power-down per rank (pJ)
system.mem_ctrls1_1.prePowerDownEnergy   173487171360                       # Energy for precharge power-down per rank (pJ)
system.mem_ctrls1_1.selfRefreshEnergy     56917223535                       # Energy for self refresh per rank (pJ)
system.mem_ctrls1_1.totalEnergy          802833877065                       # Total energy per rank (pJ)
system.mem_ctrls1_1.averagePower           512.886596                       # Core power per rank (mW)
system.mem_ctrls1_1.totalIdleTime        1409756629663                       # Total Idle time Per DRAM Rank
system.mem_ctrls1_1.memoryStateTime::IDLE   8413953469                       # Time in different power states
system.mem_ctrls1_1.memoryStateTime::REF  53586692000                       # Time in different power states
system.mem_ctrls1_1.memoryStateTime::SREF 171599670081                       # Time in different power states
system.mem_ctrls1_1.memoryStateTime::PRE_PDN 451787781618                       # Time in different power states
system.mem_ctrls1_1.memoryStateTime::ACT  93566850294                       # Time in different power states
system.mem_ctrls1_1.memoryStateTime::ACT_PDN 786369370329                       # Time in different power states
system.pwrStateResidencyTicks::UNDEFINED 34868702242152                       # Cumulative time (in ticks) in various power states
system.cpu.branchPred.lookups                       0                       # Number of BP lookups
system.cpu.branchPred.condPredicted                 0                       # Number of conditional branches predicted
system.cpu.branchPred.condIncorrect                 0                       # Number of conditional branches incorrect
system.cpu.branchPred.BTBLookups                    0                       # Number of BTB lookups
system.cpu.branchPred.BTBHits                       0                       # Number of BTB hits
system.cpu.branchPred.BTBCorrect                    0                       # Number of correct BTB predictions (this stat may not work properly.
system.cpu.branchPred.BTBHitPct                   nan                       # BTB Hit Percentage
system.cpu.branchPred.usedRAS                       0                       # Number of times the RAS was used to get a target.
system.cpu.branchPred.RASInCorrect                  0                       # Number of incorrect RAS predictions.
system.cpu.branchPred.indirectLookups               0                       # Number of indirect predictor lookups.
system.cpu.branchPred.indirectHits                  0                       # Number of indirect target hits.
system.cpu.branchPred.indirectMisses                0                       # Number of indirect misses.
system.cpu.branchPredindirectMispredicted            0                       # Number of mispredicted indirect branches.
system.cpu_voltage_domain.voltage                   1                       # Voltage in Volts
system.cpu_clk_domain.clock                       333                       # Clock period in ticks
system.cpu.dtb.fetch_hits                           0                       # ITB hits
system.cpu.dtb.fetch_misses                         0                       # ITB misses
system.cpu.dtb.fetch_acv                            0                       # ITB acv
system.cpu.dtb.fetch_accesses                       0                       # ITB accesses
system.cpu.dtb.read_hits                           16                       # DTB read hits
system.cpu.dtb.read_misses                          0                       # DTB read misses
system.cpu.dtb.read_acv                             0                       # DTB read access violations
system.cpu.dtb.read_accesses                       16                       # DTB read accesses
system.cpu.dtb.write_hits                           1                       # DTB write hits
system.cpu.dtb.write_misses                         0                       # DTB write misses
system.cpu.dtb.write_acv                            0                       # DTB write access violations
system.cpu.dtb.write_accesses                       1                       # DTB write accesses
system.cpu.dtb.data_hits                           17                       # DTB hits
system.cpu.dtb.data_misses                          0                       # DTB misses
system.cpu.dtb.data_acv                             0                       # DTB access violations
system.cpu.dtb.data_accesses                       17                       # DTB accesses
system.cpu.itb.fetch_hits                           4                       # ITB hits
system.cpu.itb.fetch_misses                         0                       # ITB misses
system.cpu.itb.fetch_acv                            0                       # ITB acv
system.cpu.itb.fetch_accesses                       4                       # ITB accesses
system.cpu.itb.read_hits                            0                       # DTB read hits
system.cpu.itb.read_misses                          0                       # DTB read misses
system.cpu.itb.read_acv                             0                       # DTB read access violations
system.cpu.itb.read_accesses                        0                       # DTB read accesses
system.cpu.itb.write_hits                           0                       # DTB write hits
system.cpu.itb.write_misses                         0                       # DTB write misses
system.cpu.itb.write_acv                            0                       # DTB write access violations
system.cpu.itb.write_accesses                       0                       # DTB write accesses
system.cpu.itb.data_hits                            0                       # DTB hits
system.cpu.itb.data_misses                          0                       # DTB misses
system.cpu.itb.data_acv                             0                       # DTB access violations
system.cpu.itb.data_accesses                        0                       # DTB accesses
system.cpu.workload.num_syscalls                    0                       # Number of system calls
system.cpu.pwrStateResidencyTicks::ON    1565324317791                       # Cumulative time (in ticks) in various power states
system.cpu.numCycles                              993                       # number of cpu cycles simulated
system.cpu.numWorkItemsStarted                      0                       # number of work items this cpu started
system.cpu.numWorkItemsCompleted                    0                       # number of work items this cpu completed
system.cpu.fetch.icacheStallCycles                 65                       # Number of cycles fetch is stalled on an Icache miss
system.cpu.fetch.Insts                             17                       # Number of instructions fetch has processed
system.cpu.fetch.Cycles                             3                       # Number of cycles fetch has run and was not squashing or blocked
system.cpu.fetch.SquashCycles                       3                       # Number of cycles fetch has spent squashing
system.cpu.fetch.PendingDrainCycles                 6                       # Number of cycles fetch has spent waiting on pipes to drain
system.cpu.fetch.CacheLines                         4                       # Number of cache lines fetched
system.cpu.fetch.IcacheSquashes                     2                       # Number of outstanding Icache misses that were squashed
system.cpu.fetch.rateDist::samples                 75                       # Number of instructions fetched each cycle (Total)
system.cpu.fetch.rateDist::mean              0.226667                       # Number of instructions fetched each cycle (Total)
system.cpu.fetch.rateDist::stdev             1.300450                       # Number of instructions fetched each cycle (Total)
system.cpu.fetch.rateDist::underflows               0      0.00%      0.00% # Number of instructions fetched each cycle (Total)
system.cpu.fetch.rateDist::0                       72     96.00%     96.00% # Number of instructions fetched each cycle (Total)
system.cpu.fetch.rateDist::1                        1      1.33%     97.33% # Number of instructions fetched each cycle (Total)
system.cpu.fetch.rateDist::2                        0      0.00%     97.33% # Number of instructions fetched each cycle (Total)
system.cpu.fetch.rateDist::3                        0      0.00%     97.33% # Number of instructions fetched each cycle (Total)
system.cpu.fetch.rateDist::4                        0      0.00%     97.33% # Number of instructions fetched each cycle (Total)
system.cpu.fetch.rateDist::5                        0      0.00%     97.33% # Number of instructions fetched each cycle (Total)
system.cpu.fetch.rateDist::6                        0      0.00%     97.33% # Number of instructions fetched each cycle (Total)
system.cpu.fetch.rateDist::7                        0      0.00%     97.33% # Number of instructions fetched each cycle (Total)
[...]
system.switch_cpus_1.iq.rate                 1.421984                       # Inst issue rate
system.switch_cpus_1.iq.fu_busy_cnt          15100822                       # FU busy when requested
system.switch_cpus_1.iq.fu_busy_rate         0.073380                       # FU busy rate (busy events/executed inst)
system.switch_cpus_1.iq.int_inst_queue_reads    205127508                       # Number of integer instruction queue reads
system.switch_cpus_1.iq.int_inst_queue_writes     28242503                       # Number of integer instruction queue writes
system.switch_cpus_1.iq.int_inst_queue_wakeup_accesses     27843145                       # Number of integer instruction queue wakeup accesses
system.switch_cpus_1.iq.fp_inst_queue_reads    366308389                       # Number of floating instruction queue reads
system.switch_cpus_1.iq.fp_inst_queue_writes    173984864                       # Number of floating instruction queue writes
system.switch_cpus_1.iq.fp_inst_queue_wakeup_accesses    172768275                       # Number of floating instruction queue wakeup accesses
system.switch_cpus_1.iq.int_alu_accesses     31674311                       # Number of integer alu accesses
system.switch_cpus_1.iq.fp_alu_accesses     189215930                       # Number of floating point alu accesses
system.switch_cpus_1.iew.lsq.thread0.forwLoads      9198066                       # Number of loads that had data forwarded from stores
system.switch_cpus_1.iew.lsq.thread0.invAddrLoads            0                       # Number of loads ignored due to an invalid address
system.switch_cpus_1.iew.lsq.thread0.squashedLoads       414206                       # Number of loads squashed
system.switch_cpus_1.iew.lsq.thread0.ignoredResponses          387                       # Number of memory responses ignored because the instruction is squashed
system.switch_cpus_1.iew.lsq.thread0.memOrderViolation        20735                       # Number of memory ordering violations
system.switch_cpus_1.iew.lsq.thread0.squashedStores       221026                       # Number of stores squashed
system.switch_cpus_1.iew.lsq.thread0.invAddrSwpfs            0                       # Number of software prefetches ignored due to an invalid address
system.switch_cpus_1.iew.lsq.thread0.blockedLoads            0                       # Number of blocked loads due to partial load-store forwarding
system.switch_cpus_1.iew.lsq.thread0.rescheduledLoads            0                       # Number of loads that were rescheduled
system.switch_cpus_1.iew.lsq.thread0.cacheBlocked      5274128                       # Number of times an access to memory failed due to the cache being blocked
system.switch_cpus_1.iew.iewIdleCycles              0                       # Number of cycles IEW is idle
system.switch_cpus_1.iew.iewSquashCycles        25064                       # Number of cycles IEW is squashing
system.switch_cpus_1.iew.iewBlockCycles      17198435                       # Number of cycles IEW is blocking
system.switch_cpus_1.iew.iewUnblockCycles     25766892                       # Number of cycles IEW is unblocking
system.switch_cpus_1.iew.iewDispatchedInsts    201103396                       # Number of instructions dispatched to IQ
system.switch_cpus_1.iew.iewDispSquashedInsts         2069                       # Number of squashed instructions skipped by dispatch
system.switch_cpus_1.iew.iewDispLoadInsts     82548125                       # Number of dispatched load instructions
system.switch_cpus_1.iew.iewDispStoreInsts     38175782                       # Number of dispatched store instructions
system.switch_cpus_1.iew.iewDispNonSpecInsts            0                       # Number of dispatched non-speculative instructions
system.switch_cpus_1.iew.iewIQFullEvents        19566                       # Number of times the IQ has become full, causing a stall
system.switch_cpus_1.iew.iewLSQFullEvents     25677415                       # Number of times the LSQ has become full, causing a stall
system.switch_cpus_1.iew.memOrderViolationEvents        20735                       # Number of memory order violations
system.switch_cpus_1.iew.predictedTakenIncorrect         1397                       # Number of branches that were predicted taken incorrectly
system.switch_cpus_1.iew.predictedNotTakenIncorrect           68                       # Number of branches that were predicted not taken incorrectly
system.switch_cpus_1.iew.branchMispredicts         1465                       # Number of branch mispredicts detected at execute
system.switch_cpus_1.iew.iewExecutedInsts    205726017                       # Number of executed instructions
system.switch_cpus_1.iew.iewExecLoadInsts     87457812                       # Number of load instructions executed
system.switch_cpus_1.iew.iewExecSquashedInsts        63394                       # Number of squashed instructions skipped in execute
system.switch_cpus_1.iew.exec_swp                   0                       # number of swp insts executed
system.switch_cpus_1.iew.exec_nop                  27                       # number of nop insts executed
system.switch_cpus_1.iew.exec_refs          125508396                       # number of memory reference insts executed
system.switch_cpus_1.iew.exec_branches         171853                       # Number of branches executed
system.switch_cpus_1.iew.exec_stores         38050584                       # Number of stores executed
system.switch_cpus_1.iew.exec_rate           1.421546                       # Inst execution rate
system.switch_cpus_1.iew.wb_sent            200668045                       # cumulative count of insts sent to commit
system.switch_cpus_1.iew.wb_count           200611420                       # cumulative count of insts written-back
system.switch_cpus_1.iew.wb_producers       131381468                       # num instructions producing a value
system.switch_cpus_1.iew.wb_consumers       136772859                       # num instructions consuming a value
system.switch_cpus_1.iew.wb_rate             1.386205                       # insts written-back per cycle
system.switch_cpus_1.iew.wb_fanout           0.960581                       # average fanout of values written-back
system.switch_cpus_1.commit.commitSquashedInsts      1061191                       # The number of squashed insts skipped by commit
system.switch_cpus_1.commit.branchMispredicts         1459                       # The number of times a branch was mispredicted
system.switch_cpus_1.commit.committed_per_cycle::samples    144573205                       # Number of insts commited each cycle
system.switch_cpus_1.commit.committed_per_cycle::mean     1.383382                       # Number of insts commited each cycle
system.switch_cpus_1.commit.committed_per_cycle::stdev     2.771147                       # Number of insts commited each cycle
system.switch_cpus_1.commit.committed_per_cycle::underflows            0      0.00%      0.00% # Number of insts commited each cycle
system.switch_cpus_1.commit.committed_per_cycle::0    110135986     76.18%     76.18% # Number of insts commited each cycle
system.switch_cpus_1.commit.committed_per_cycle::1      2864527      1.98%     78.16% # Number of insts commited each cycle
system.switch_cpus_1.commit.committed_per_cycle::2      3091182      2.14%     80.30% # Number of insts commited each cycle
system.switch_cpus_1.commit.committed_per_cycle::3      2403854      1.66%     81.96% # Number of insts commited each cycle
system.switch_cpus_1.commit.committed_per_cycle::4      2982158      2.06%     84.03% # Number of insts commited each cycle
system.switch_cpus_1.commit.committed_per_cycle::5      2470164      1.71%     85.73% # Number of insts commited each cycle
system.switch_cpus_1.commit.committed_per_cycle::6      1822862      1.26%     86.99% # Number of insts commited each cycle
system.switch_cpus_1.commit.committed_per_cycle::7      1894829      1.31%     88.31% # Number of insts commited each cycle
system.switch_cpus_1.commit.committed_per_cycle::8     16907643     11.69%    100.00% # Number of insts commited each cycle
system.switch_cpus_1.commit.committed_per_cycle::overflows            0      0.00%    100.00% # Number of insts commited each cycle
system.switch_cpus_1.commit.committed_per_cycle::min_value            0                       # Number of insts commited each cycle
system.switch_cpus_1.commit.committed_per_cycle::max_value            8                       # Number of insts commited each cycle
system.switch_cpus_1.commit.committed_per_cycle::total    144573205                       # Number of insts commited each cycle
system.switch_cpus_1.commit.committedInsts    200000024                       # Number of instructions committed
system.switch_cpus_1.commit.committedOps    200000024                       # Number of ops (including micro ops) committed
system.switch_cpus_1.commit.swp_count               0                       # Number of s/w prefetches committed
system.switch_cpus_1.commit.refs            120088640                       # Number of memory references committed
system.switch_cpus_1.commit.loads            82133897                       # Number of loads committed
system.switch_cpus_1.commit.membars                 0                       # Number of memory barriers committed
system.switch_cpus_1.commit.branches           167612                       # Number of branches committed
system.switch_cpus_1.commit.fp_insts        172405126                       # Number of committed floating point instructions.
system.switch_cpus_1.commit.int_insts       135398704                       # Number of committed integer instructions.
system.switch_cpus_1.commit.function_calls            0                       # Number of function calls committed.
system.switch_cpus_1.commit.op_class_0::No_OpClass           18      0.00%      0.00% # Class of committed instruction
system.switch_cpus_1.commit.op_class_0::IntAlu     15310537      7.66%      7.66% # Class of committed instruction
system.switch_cpus_1.commit.op_class_0::IntMult          186      0.00%      7.66% # Class of committed instruction
system.switch_cpus_1.commit.op_class_0::IntDiv            0      0.00%      7.66% # Class of committed instruction
system.switch_cpus_1.commit.op_class_0::FloatAdd     36073856     18.04%     25.69% # Class of committed instruction
system.switch_cpus_1.commit.op_class_0::FloatCmp            0      0.00%     25.69% # Class of committed instruction
system.switch_cpus_1.commit.op_class_0::FloatCvt            0      0.00%     25.69% # Class of committed instruction
system.switch_cpus_1.commit.op_class_0::FloatMult     28449010     14.22%     39.92% # Class of committed instruction
system.switch_cpus_1.commit.op_class_0::FloatMultAcc            0      0.00%     39.92% # Class of committed instruction
system.switch_cpus_1.commit.op_class_0::FloatDiv        77777      0.04%     39.96% # Class of committed instruction
system.switch_cpus_1.commit.op_class_0::FloatMisc            0      0.00%     39.96% # Class of committed instruction
system.switch_cpus_1.commit.op_class_0::FloatSqrt            0      0.00%     39.96% # Class of committed instruction
system.switch_cpus_1.commit.op_class_0::SimdAdd            0      0.00%     39.96% # Class of committed instruction
system.switch_cpus_1.commit.op_class_0::SimdAddAcc            0      0.00%     39.96% # Class of committed instruction
system.switch_cpus_1.commit.op_class_0::SimdAlu            0      0.00%     39.96% # Class of committed instruction
system.switch_cpus_1.commit.op_class_0::SimdCmp            0      0.00%     39.96% # Class of committed instruction
system.switch_cpus_1.commit.op_class_0::SimdCvt            0      0.00%     39.96% # Class of committed instruction
system.switch_cpus_1.commit.op_class_0::SimdMisc            0      0.00%     39.96% # Class of committed instruction
system.switch_cpus_1.commit.op_class_0::SimdMult            0      0.00%     39.96% # Class of committed instruction
system.switch_cpus_1.commit.op_class_0::SimdMultAcc            0      0.00%     39.96% # Class of committed instruction
system.switch_cpus_1.commit.op_class_0::SimdShift            0      0.00%     39.96% # Class of committed instruction
system.switch_cpus_1.commit.op_class_0::SimdShiftAcc            0      0.00%     39.96% # Class of committed instruction
system.switch_cpus_1.commit.op_class_0::SimdSqrt            0      0.00%     39.96% # Class of committed instruction
system.switch_cpus_1.commit.op_class_0::SimdFloatAdd            0      0.00%     39.96% # Class of committed instruction
system.switch_cpus_1.commit.op_class_0::SimdFloatAlu            0      0.00%     39.96% # Class of committed instruction
system.switch_cpus_1.commit.op_class_0::SimdFloatCmp            0      0.00%     39.96% # Class of committed instruction
system.switch_cpus_1.commit.op_class_0::SimdFloatCvt            0      0.00%     39.96% # Class of committed instruction
system.switch_cpus_1.commit.op_class_0::SimdFloatDiv            0      0.00%     39.96% # Class of committed instruction
system.switch_cpus_1.commit.op_class_0::SimdFloatMisc            0      0.00%     39.96% # Class of committed instruction
system.switch_cpus_1.commit.op_class_0::SimdFloatMult            0      0.00%     39.96% # Class of committed instruction
system.switch_cpus_1.commit.op_class_0::SimdFloatMultAcc            0      0.00%     39.96% # Class of committed instruction
system.switch_cpus_1.commit.op_class_0::SimdFloatSqrt            0      0.00%     39.96% # Class of committed instruction
system.switch_cpus_1.commit.op_class_0::MemRead      8202704      4.10%     44.06% # Class of committed instruction
system.switch_cpus_1.commit.op_class_0::MemWrite      4081453      2.04%     46.10% # Class of committed instruction
system.switch_cpus_1.commit.op_class_0::FloatMemRead     73931193     36.97%     83.06% # Class of committed instruction
system.switch_cpus_1.commit.op_class_0::FloatMemWrite     33873290     16.94%    100.00% # Class of committed instruction
system.switch_cpus_1.commit.op_class_0::IprAccess            0      0.00%    100.00% # Class of committed instruction
system.switch_cpus_1.commit.op_class_0::InstPrefetch            0      0.00%    100.00% # Class of committed instruction
system.switch_cpus_1.commit.op_class_0::total    200000024                       # Class of committed instruction
system.switch_cpus_1.commit.bw_lim_events     16907643                       # number cycles where commit BW limit reached
system.switch_cpus_1.rob.rob_reads          328648777                       # The number of ROB reads
system.switch_cpus_1.rob.rob_writes         402269845                       # The number of ROB writes
system.switch_cpus_1.timesIdled                     4                       # Number of times that the entire CPU went into an idle state and unscheduled itself
system.switch_cpus_1.idleCycles                   387                       # Total number of cycles that the CPU has spent unscheduled due to idling
system.switch_cpus_1.committedInsts         200000006                       # Number of Instructions Simulated
system.switch_cpus_1.committedOps           200000006                       # Number of Ops (including micro ops) Simulated
system.switch_cpus_1.cpi                     0.723599                       # CPI: Cycles Per Instruction
system.switch_cpus_1.cpi_total               0.723599                       # CPI: Total CPI of All Threads
system.switch_cpus_1.ipc                     1.381980                       # IPC: Instructions Per Cycle
system.switch_cpus_1.ipc_total               1.381980                       # IPC: Total IPC of All Threads
system.switch_cpus_1.int_regfile_reads      145549858                       # number of integer regfile reads
system.switch_cpus_1.int_regfile_writes      23578822                       # number of integer regfile writes
system.switch_cpus_1.fp_regfile_reads       163399917                       # number of floating regfile reads
system.switch_cpus_1.fp_regfile_writes      138856363                       # number of floating regfile writes
system.tol3bus.snoop_filter.tot_requests      7960952                       # Total number of requests made to the snoop filter.
system.tol3bus.snoop_filter.hit_single_requests      3978502                       # Number of requests hitting in the snoop filter with a single holder of the requested data.
system.tol3bus.snoop_filter.hit_multi_requests            0                       # Number of requests hitting in the snoop filter with multiple (>1) holders of the requested data.
system.tol3bus.snoop_filter.tot_snoops          22148                       # Total number of snoops made to the snoop filter.
system.tol3bus.snoop_filter.hit_single_snoops        22148                       # Number of snoops hitting in the snoop filter with a single holder of the requested data.
system.tol3bus.snoop_filter.hit_multi_snoops            0                       # Number of snoops hitting in the snoop filter with multiple (>1) holders of the requested data.
system.tol3bus.pwrStateResidencyTicks::UNDEFINED 34868702242152                       # Cumulative time (in ticks) in various power states
system.tol3bus.trans_dist::ReadResp           2827605                       # Transaction distribution
system.tol3bus.trans_dist::WritebackDirty      2571656                       # Transaction distribution
system.tol3bus.trans_dist::CleanEvict         4619872                       # Transaction distribution
system.tol3bus.trans_dist::ReadExReq          1154845                       # Transaction distribution
system.tol3bus.trans_dist::ReadExResp         1154845                       # Transaction distribution
system.tol3bus.trans_dist::ReadSharedReq      2827605                       # Transaction distribution
system.tol3bus.pkt_count_system.cpu.l2.mem_side::system.l3.cpu_side     11943402                       # Packet count per connected master and slave (bytes)
system.tol3bus.pkt_size_system.cpu.l2.mem_side::system.l3.cpu_side    349306112                       # Cumulative packet size per connected master and slave (bytes)
system.tol3bus.snoops                         3213026                       # Total snoops (count)
system.tol3bus.snoopTraffic                  70156672                       # Total snoop traffic (bytes)
system.tol3bus.snoop_fanout::samples          7195476                       # Request fanout histogram
system.tol3bus.snoop_fanout::mean            0.003078                       # Request fanout histogram
system.tol3bus.snoop_fanout::stdev           0.055395                       # Request fanout histogram
system.tol3bus.snoop_fanout::underflows             0      0.00%      0.00% # Request fanout histogram
system.tol3bus.snoop_fanout::0                7173328     99.69%     99.69% # Request fanout histogram
system.tol3bus.snoop_fanout::1                  22148      0.31%    100.00% # Request fanout histogram
system.tol3bus.snoop_fanout::overflows              0      0.00%    100.00% # Request fanout histogram
system.tol3bus.snoop_fanout::min_value              0                       # Request fanout histogram
system.tol3bus.snoop_fanout::max_value              1                       # Request fanout histogram
system.tol3bus.snoop_fanout::total            7195476                       # Request fanout histogram
system.tol3bus.reqLayer0.occupancy         3142324530                       # Layer occupancy (ticks)
system.tol3bus.reqLayer0.utilization              0.2                       # Layer utilization (%)
system.tol3bus.respLayer0.occupancy        2652311700                       # Layer occupancy (ticks)
system.tol3bus.respLayer0.utilization             0.2                       # Layer utilization (%)

---------- End Simulation Statistics   ----------
