
---------- Begin Simulation Statistics ----------
sim_seconds                                  2.801489                       # Number of seconds simulated
sim_ticks                                2801489038002                       # Number of ticks simulated
final_tick                               129754485562734                       # Number of ticks from beginning of simulation (restored from checkpoints and never reset)
sim_freq                                 1000000000000                       # Frequency of simulated ticks
host_inst_rate                                 171621                       # Simulator instruction rate (inst/s)
host_op_rate                                   171621                       # Simulator op (including micro ops) rate (op/s)
host_tick_rate                              400661827                       # Simulator tick rate (ticks/s)
host_mem_usage                                2437444                       # Number of bytes of host memory used
host_seconds                                  6992.15                       # Real time elapsed on the host
sim_insts                                  1200000003                       # Number of instructions simulated
sim_ops                                    1200000003                       # Number of ops (including micro ops) simulated
system.voltage_domain.voltage                       1                       # Voltage in Volts
system.clk_domain.clock                          1000                       # Clock period in ticks
system.mem_ctrls0.pwrStateResidencyTicks::UNDEFINED 129754485562734                       # Cumulative time (in ticks) in various power states
system.mem_ctrls0.bytes_read::cpu.inst            128                       # Number of bytes read from this memory
system.mem_ctrls0.bytes_read::switch_cpus.inst       675712                       # Number of bytes read from this memory
system.mem_ctrls0.bytes_read::switch_cpus.data    363263296                       # Number of bytes read from this memory
system.mem_ctrls0.bytes_read::switch_cpus_1.inst       195968                       # Number of bytes read from this memory
system.mem_ctrls0.bytes_read::switch_cpus_1.data     81483328                       # Number of bytes read from this memory
system.mem_ctrls0.bytes_read::total         445618432                       # Number of bytes read from this memory
system.mem_ctrls0.bytes_inst_read::cpu.inst          128                       # Number of instructions bytes read from this memory
system.mem_ctrls0.bytes_inst_read::switch_cpus.inst       675712                       # Number of instructions bytes read from this memory
system.mem_ctrls0.bytes_inst_read::switch_cpus_1.inst       195968                       # Number of instructions bytes read from this memory
system.mem_ctrls0.bytes_inst_read::total       871808                       # Number of instructions bytes read from this memory
system.mem_ctrls0.bytes_written::writebacks    187260544                       # Number of bytes written to this memory
system.mem_ctrls0.bytes_written::total      187260544                       # Number of bytes written to this memory
system.mem_ctrls0.num_reads::cpu.inst               2                       # Number of read requests responded to by this memory
system.mem_ctrls0.num_reads::switch_cpus.inst        10558                       # Number of read requests responded to by this memory
system.mem_ctrls0.num_reads::switch_cpus.data      5675989                       # Number of read requests responded to by this memory
system.mem_ctrls0.num_reads::switch_cpus_1.inst         3062                       # Number of read requests responded to by this memory
system.mem_ctrls0.num_reads::switch_cpus_1.data      1273177                       # Number of read requests responded to by this memory
system.mem_ctrls0.num_reads::total            6962788                       # Number of read requests responded to by this memory
system.mem_ctrls0.num_writes::writebacks      2925946                       # Number of write requests responded to by this memory
system.mem_ctrls0.num_writes::total           2925946                       # Number of write requests responded to by this memory
system.mem_ctrls0.bw_read::cpu.inst                46                       # Total read bandwidth from this memory (bytes/s)
system.mem_ctrls0.bw_read::switch_cpus.inst       241197                       # Total read bandwidth from this memory (bytes/s)
system.mem_ctrls0.bw_read::switch_cpus.data    129667934                       # Total read bandwidth from this memory (bytes/s)
system.mem_ctrls0.bw_read::switch_cpus_1.inst        69951                       # Total read bandwidth from this memory (bytes/s)
system.mem_ctrls0.bw_read::switch_cpus_1.data     29085721                       # Total read bandwidth from this memory (bytes/s)
system.mem_ctrls0.bw_read::total            159064849                       # Total read bandwidth from this memory (bytes/s)
system.mem_ctrls0.bw_inst_read::cpu.inst           46                       # Instruction read bandwidth from this memory (bytes/s)
system.mem_ctrls0.bw_inst_read::switch_cpus.inst       241197                       # Instruction read bandwidth from this memory (bytes/s)
system.mem_ctrls0.bw_inst_read::switch_cpus_1.inst        69951                       # Instruction read bandwidth from this memory (bytes/s)
system.mem_ctrls0.bw_inst_read::total          311195                       # Instruction read bandwidth from this memory (bytes/s)
system.mem_ctrls0.bw_write::writebacks       66843219                       # Write bandwidth from this memory (bytes/s)
system.mem_ctrls0.bw_write::total            66843219                       # Write bandwidth from this memory (bytes/s)
system.mem_ctrls0.bw_total::writebacks       66843219                       # Total bandwidth to/from this memory (bytes/s)
system.mem_ctrls0.bw_total::cpu.inst               46                       # Total bandwidth to/from this memory (bytes/s)
system.mem_ctrls0.bw_total::switch_cpus.inst       241197                       # Total bandwidth to/from this memory (bytes/s)
system.mem_ctrls0.bw_total::switch_cpus.data    129667934                       # Total bandwidth to/from this memory (bytes/s)
system.mem_ctrls0.bw_total::switch_cpus_1.inst        69951                       # Total bandwidth to/from this memory (bytes/s)
system.mem_ctrls0.bw_total::switch_cpus_1.data     29085721                       # Total bandwidth to/from this memory (bytes/s)
system.mem_ctrls0.bw_total::total           225908068                       # Total bandwidth to/from this memory (bytes/s)
system.mem_ctrls0.readReqs                    6962788                       # Number of read requests accepted
system.mem_ctrls0.writeReqs                   2925946                       # Number of write requests accepted
system.mem_ctrls0.readBursts                  6962788                       # Number of DRAM read bursts, including those serviced by the write queue
system.mem_ctrls0.writeBursts                 2925946                       # Number of DRAM write bursts, including those merged in the write queue
system.mem_ctrls0.bytesReadDRAM             445426048                       # Total number of bytes read from DRAM
system.mem_ctrls0.bytesReadWrQ                 192384                       # Total number of bytes read from write queue
system.mem_ctrls0.bytesWritten              187259264                       # Total number of bytes written to DRAM
system.mem_ctrls0.bytesReadSys              445618432                       # Total read bytes from the system interface side
system.mem_ctrls0.bytesWrittenSys           187260544                       # Total written bytes from the system interface side
system.mem_ctrls0.servicedByWrQ                  3006                       # Number of DRAM read bursts serviced by the write queue
system.mem_ctrls0.mergedWrBursts                    0                       # Number of DRAM write bursts merged with an existing one
system.mem_ctrls0.neitherReadNorWriteReqs            0                       # Number of requests that are neither read nor write
system.mem_ctrls0.perBankRdBursts::0           429283                       # Per bank write bursts
system.mem_ctrls0.perBankRdBursts::1           440936                       # Per bank write bursts
system.mem_ctrls0.perBankRdBursts::2           440511                       # Per bank write bursts
system.mem_ctrls0.perBankRdBursts::3           424560                       # Per bank write bursts
system.mem_ctrls0.perBankRdBursts::4           424082                       # Per bank write bursts
system.mem_ctrls0.perBankRdBursts::5           440630                       # Per bank write bursts
system.mem_ctrls0.perBankRdBursts::6           447229                       # Per bank write bursts
system.mem_ctrls0.perBankRdBursts::7           445311                       # Per bank write bursts
system.mem_ctrls0.perBankRdBursts::8           455265                       # Per bank write bursts
system.mem_ctrls0.perBankRdBursts::9           439263                       # Per bank write bursts
system.mem_ctrls0.perBankRdBursts::10          423343                       # Per bank write bursts
system.mem_ctrls0.perBankRdBursts::11          423236                       # Per bank write bursts
system.mem_ctrls0.perBankRdBursts::12          419746                       # Per bank write bursts
system.mem_ctrls0.perBankRdBursts::13          436575                       # Per bank write bursts
system.mem_ctrls0.perBankRdBursts::14          437732                       # Per bank write bursts
system.mem_ctrls0.perBankRdBursts::15          432080                       # Per bank write bursts
system.mem_ctrls0.perBankWrBursts::0           181319                       # Per bank write bursts
system.mem_ctrls0.perBankWrBursts::1           182140                       # Per bank write bursts
system.mem_ctrls0.perBankWrBursts::2           185546                       # Per bank write bursts
system.mem_ctrls0.perBankWrBursts::3           175359                       # Per bank write bursts
system.mem_ctrls0.perBankWrBursts::4           177116                       # Per bank write bursts
system.mem_ctrls0.perBankWrBursts::5           185495                       # Per bank write bursts
system.mem_ctrls0.perBankWrBursts::6           191716                       # Per bank write bursts
system.mem_ctrls0.perBankWrBursts::7           190603                       # Per bank write bursts
system.mem_ctrls0.perBankWrBursts::8           191696                       # Per bank write bursts
system.mem_ctrls0.perBankWrBursts::9           182548                       # Per bank write bursts
system.mem_ctrls0.perBankWrBursts::10          178473                       # Per bank write bursts
system.mem_ctrls0.perBankWrBursts::11          180790                       # Per bank write bursts
system.mem_ctrls0.perBankWrBursts::12          174078                       # Per bank write bursts
system.mem_ctrls0.perBankWrBursts::13          182094                       # Per bank write bursts
system.mem_ctrls0.perBankWrBursts::14          186593                       # Per bank write bursts
system.mem_ctrls0.perBankWrBursts::15          180360                       # Per bank write bursts
system.mem_ctrls0.numRdRetry                        0                       # Number of times read queue was full causing retry
system.mem_ctrls0.numWrRetry                        0                       # Number of times write queue was full causing retry
system.mem_ctrls0.totGap                 2801488901805                       # Total gap between requests
system.mem_ctrls0.readPktSize::0                    0                       # Read request sizes (log2)
system.mem_ctrls0.readPktSize::1                    0                       # Read request sizes (log2)
system.mem_ctrls0.readPktSize::2                    0                       # Read request sizes (log2)
system.mem_ctrls0.readPktSize::3                    0                       # Read request sizes (log2)
system.mem_ctrls0.readPktSize::4                    0                       # Read request sizes (log2)
system.mem_ctrls0.readPktSize::5                    0                       # Read request sizes (log2)
system.mem_ctrls0.readPktSize::6              6962788                       # Read request sizes (log2)
system.mem_ctrls0.writePktSize::0                   0                       # Write request sizes (log2)
system.mem_ctrls0.writePktSize::1                   0                       # Write request sizes (log2)
system.mem_ctrls0.writePktSize::2                   0                       # Write request sizes (log2)
system.mem_ctrls0.writePktSize::3                   0                       # Write request sizes (log2)
system.mem_ctrls0.writePktSize::4                   0                       # Write request sizes (log2)
system.mem_ctrls0.writePktSize::5                   0                       # Write request sizes (log2)
system.mem_ctrls0.writePktSize::6             2925946                       # Write request sizes (log2)
system.mem_ctrls0.rdQLenPdf::0                6687853                       # What read queue length does an incoming req see
system.mem_ctrls0.rdQLenPdf::1                 240084                       # What read queue length does an incoming req see
system.mem_ctrls0.rdQLenPdf::2                  29942                       # What read queue length does an incoming req see
system.mem_ctrls0.rdQLenPdf::3                   1902                       # What read queue length does an incoming req see
system.mem_ctrls0.rdQLenPdf::4                      1                       # What read queue length does an incoming req see
system.mem_ctrls0.rdQLenPdf::5                      0                       # What read queue length does an incoming req see
system.mem_ctrls0.rdQLenPdf::6                      0                       # What read queue length does an incoming req see
system.mem_ctrls0.rdQLenPdf::7                      0                       # What read queue length does an incoming req see
system.mem_ctrls0.rdQLenPdf::8                      0                       # What read queue length does an incoming req see
system.mem_ctrls0.rdQLenPdf::9                      0                       # What read queue length does an incoming req see
system.mem_ctrls0.rdQLenPdf::10                     0                       # What read queue length does an incoming req see
system.mem_ctrls0.rdQLenPdf::11                     0                       # What read queue length does an incoming req see
system.mem_ctrls0.rdQLenPdf::12                     0                       # What read queue length does an incoming req see
system.mem_ctrls0.rdQLenPdf::13                     0                       # What read queue length does an incoming req see
system.mem_ctrls0.rdQLenPdf::14                     0                       # What read queue length does an incoming req see
system.mem_ctrls0.rdQLenPdf::15                     0                       # What read queue length does an incoming req see
system.mem_ctrls0.rdQLenPdf::16                     0                       # What read queue length does an incoming req see
system.mem_ctrls0.rdQLenPdf::17                     0                       # What read queue length does an incoming req see
system.mem_ctrls0.rdQLenPdf::18                     0                       # What read queue length does an incoming req see
system.mem_ctrls0.rdQLenPdf::19                     0                       # What read queue length does an incoming req see
system.mem_ctrls0.rdQLenPdf::20                     0                       # What read queue length does an incoming req see
system.mem_ctrls0.rdQLenPdf::21                     0                       # What read queue length does an incoming req see
system.mem_ctrls0.rdQLenPdf::22                     0                       # What read queue length does an incoming req see
system.mem_ctrls0.rdQLenPdf::23                     0                       # What read queue length does an incoming req see
system.mem_ctrls0.rdQLenPdf::24                     0                       # What read queue length does an incoming req see
system.mem_ctrls0.rdQLenPdf::25                     0                       # What read queue length does an incoming req see
system.mem_ctrls0.rdQLenPdf::26                     0                       # What read queue length does an incoming req see
system.mem_ctrls0.rdQLenPdf::27                     0                       # What read queue length does an incoming req see
system.mem_ctrls0.rdQLenPdf::28                     0                       # What read queue length does an incoming req see
system.mem_ctrls0.rdQLenPdf::29                     0                       # What read queue length does an incoming req see
system.mem_ctrls0.rdQLenPdf::30                     0                       # What read queue length does an incoming req see
system.mem_ctrls0.rdQLenPdf::31                     0                       # What read queue length does an incoming req see
system.mem_ctrls0.wrQLenPdf::0                      2                       # What write queue length does an incoming req see
system.mem_ctrls0.wrQLenPdf::1                      2                       # What write queue length does an incoming req see
system.mem_ctrls0.wrQLenPdf::2                      2                       # What write queue length does an incoming req see
system.mem_ctrls0.wrQLenPdf::3                      2                       # What write queue length does an incoming req see
system.mem_ctrls0.wrQLenPdf::4                      2                       # What write queue length does an incoming req see
system.mem_ctrls0.wrQLenPdf::5                      2                       # What write queue length does an incoming req see
system.mem_ctrls0.wrQLenPdf::6                      2                       # What write queue length does an incoming req see
system.mem_ctrls0.wrQLenPdf::7                      2                       # What write queue length does an incoming req see
system.mem_ctrls0.wrQLenPdf::8                      2                       # What write queue length does an incoming req see
system.mem_ctrls0.wrQLenPdf::9                      2                       # What write queue length does an incoming req see
system.mem_ctrls0.wrQLenPdf::10                     2                       # What write queue length does an incoming req see
system.mem_ctrls0.wrQLenPdf::11                     2                       # What write queue length does an incoming req see
system.mem_ctrls0.wrQLenPdf::12                     2                       # What write queue length does an incoming req see
system.mem_ctrls0.wrQLenPdf::13                     2                       # What write queue length does an incoming req see
system.mem_ctrls0.wrQLenPdf::14                     2                       # What write queue length does an incoming req see
system.mem_ctrls0.wrQLenPdf::15                106252                       # What write queue length does an incoming req see
system.mem_ctrls0.wrQLenPdf::16                110772                       # What write queue length does an incoming req see
system.mem_ctrls0.wrQLenPdf::17                166075                       # What write queue length does an incoming req see
system.mem_ctrls0.wrQLenPdf::18                169168                       # What write queue length does an incoming req see
system.mem_ctrls0.wrQLenPdf::19                169348                       # What write queue length does an incoming req see
system.mem_ctrls0.wrQLenPdf::20                169339                       # What write queue length does an incoming req see
system.mem_ctrls0.wrQLenPdf::21                169297                       # What write queue length does an incoming req see
system.mem_ctrls0.wrQLenPdf::22                169249                       # What write queue length does an incoming req see
system.mem_ctrls0.wrQLenPdf::23                169414                       # What write queue length does an incoming req see
system.mem_ctrls0.wrQLenPdf::24                169330                       # What write queue length does an incoming req see
system.mem_ctrls0.wrQLenPdf::25                169393                       # What write queue length does an incoming req see
system.mem_ctrls0.wrQLenPdf::26                171377                       # What write queue length does an incoming req see
system.mem_ctrls0.wrQLenPdf::27                169584                       # What write queue length does an incoming req see
system.mem_ctrls0.wrQLenPdf::28                169322                       # What write queue length does an incoming req see
system.mem_ctrls0.wrQLenPdf::29                169490                       # What write queue length does an incoming req see
system.mem_ctrls0.wrQLenPdf::30                170478                       # What write queue length does an incoming req see
system.mem_ctrls0.wrQLenPdf::31                169010                       # What write queue length does an incoming req see
system.mem_ctrls0.wrQLenPdf::32                168975                       # What write queue length does an incoming req see
system.mem_ctrls0.wrQLenPdf::33                    37                       # What write queue length does an incoming req see
system.mem_ctrls0.wrQLenPdf::34                     6                       # What write queue length does an incoming req see
system.mem_ctrls0.wrQLenPdf::35                     0                       # What write queue length does an incoming req see
system.mem_ctrls0.wrQLenPdf::36                     0                       # What write queue length does an incoming req see
system.mem_ctrls0.wrQLenPdf::37                     0                       # What write queue length does an incoming req see
system.mem_ctrls0.wrQLenPdf::38                     0                       # What write queue length does an incoming req see
system.mem_ctrls0.wrQLenPdf::39                     0                       # What write queue length does an incoming req see
system.mem_ctrls0.wrQLenPdf::40                     0                       # What write queue length does an incoming req see
system.mem_ctrls0.wrQLenPdf::41                     0                       # What write queue length does an incoming req see
system.mem_ctrls0.wrQLenPdf::42                     0                       # What write queue length does an incoming req see
system.mem_ctrls0.wrQLenPdf::43                     0                       # What write queue length does an incoming req see
system.mem_ctrls0.wrQLenPdf::44                     0                       # What write queue length does an incoming req see
system.mem_ctrls0.wrQLenPdf::45                     0                       # What write queue length does an incoming req see
system.mem_ctrls0.wrQLenPdf::46                     0                       # What write queue length does an incoming req see
system.mem_ctrls0.wrQLenPdf::47                     0                       # What write queue length does an incoming req see
system.mem_ctrls0.wrQLenPdf::48                     0                       # What write queue length does an incoming req see
system.mem_ctrls0.wrQLenPdf::49                     0                       # What write queue length does an incoming req see
system.mem_ctrls0.wrQLenPdf::50                     0                       # What write queue length does an incoming req see
system.mem_ctrls0.wrQLenPdf::51                     0                       # What write queue length does an incoming req see
system.mem_ctrls0.wrQLenPdf::52                     0                       # What write queue length does an incoming req see
system.mem_ctrls0.wrQLenPdf::53                     0                       # What write queue length does an incoming req see
system.mem_ctrls0.wrQLenPdf::54                     0                       # What write queue length does an incoming req see
system.mem_ctrls0.wrQLenPdf::55                     0                       # What write queue length does an incoming req see
system.mem_ctrls0.wrQLenPdf::56                     0                       # What write queue length does an incoming req see
system.mem_ctrls0.wrQLenPdf::57                     0                       # What write queue length does an incoming req see
system.mem_ctrls0.wrQLenPdf::58                     0                       # What write queue length does an incoming req see
system.mem_ctrls0.wrQLenPdf::59                     0                       # What write queue length does an incoming req see
system.mem_ctrls0.wrQLenPdf::60                     0                       # What write queue length does an incoming req see
system.mem_ctrls0.wrQLenPdf::61                     0                       # What write queue length does an incoming req see
system.mem_ctrls0.wrQLenPdf::62                     0                       # What write queue length does an incoming req see
system.mem_ctrls0.wrQLenPdf::63                     0                       # What write queue length does an incoming req see
system.mem_ctrls0.bytesPerActivate::samples      6219391                       # Bytes accessed per row activation
system.mem_ctrls0.bytesPerActivate::mean   101.727691                       # Bytes accessed per row activation
system.mem_ctrls0.bytesPerActivate::gmean    83.688764                       # Bytes accessed per row activation
system.mem_ctrls0.bytesPerActivate::stdev    94.262203                       # Bytes accessed per row activation
system.mem_ctrls0.bytesPerActivate::0-127      4683299     75.30%     75.30% # Bytes accessed per row activation
system.mem_ctrls0.bytesPerActivate::128-255      1075394     17.29%     92.59% # Bytes accessed per row activation
system.mem_ctrls0.bytesPerActivate::256-383       260598      4.19%     96.78% # Bytes accessed per row activation
system.mem_ctrls0.bytesPerActivate::384-511       107692      1.73%     98.51% # Bytes accessed per row activation
system.mem_ctrls0.bytesPerActivate::512-639        54881      0.88%     99.40% # Bytes accessed per row activation
system.mem_ctrls0.bytesPerActivate::640-767        22494      0.36%     99.76% # Bytes accessed per row activation
system.mem_ctrls0.bytesPerActivate::768-895         8231      0.13%     99.89% # Bytes accessed per row activation
system.mem_ctrls0.bytesPerActivate::896-1023         3809      0.06%     99.95% # Bytes accessed per row activation
system.mem_ctrls0.bytesPerActivate::1024-1151         2993      0.05%    100.00% # Bytes accessed per row activation
system.mem_ctrls0.bytesPerActivate::total      6219391                       # Bytes accessed per row activation
system.mem_ctrls0.rdPerTurnAround::samples       168971                       # Reads before turning the bus around for writes
system.mem_ctrls0.rdPerTurnAround::mean     41.189151                       # Reads before turning the bus around for writes
system.mem_ctrls0.rdPerTurnAround::gmean    39.511027                       # Reads before turning the bus around for writes
system.mem_ctrls0.rdPerTurnAround::stdev    58.483333                       # Reads before turning the bus around for writes
system.mem_ctrls0.rdPerTurnAround::0-1023       168969    100.00%    100.00% # Reads before turning the bus around for writes
system.mem_ctrls0.rdPerTurnAround::1024-2047            1      0.00%    100.00% # Reads before turning the bus around for writes
system.mem_ctrls0.rdPerTurnAround::23552-24575            1      0.00%    100.00% # Reads before turning the bus around for writes
system.mem_ctrls0.rdPerTurnAround::total       168971                       # Reads before turning the bus around for writes
system.mem_ctrls0.wrPerTurnAround::samples       168971                       # Writes before turning the bus around for reads
system.mem_ctrls0.wrPerTurnAround::mean     17.316143                       # Writes before turning the bus around for reads
system.mem_ctrls0.wrPerTurnAround::gmean    17.287445                       # Writes before turning the bus around for reads
system.mem_ctrls0.wrPerTurnAround::stdev     0.987946                       # Writes before turning the bus around for reads
system.mem_ctrls0.wrPerTurnAround::16           58448     34.59%     34.59% # Writes before turning the bus around for reads
system.mem_ctrls0.wrPerTurnAround::17            4010      2.37%     36.96% # Writes before turning the bus around for reads
system.mem_ctrls0.wrPerTurnAround::18          101471     60.05%     97.02% # Writes before turning the bus around for reads
system.mem_ctrls0.wrPerTurnAround::19            4763      2.82%     99.83% # Writes before turning the bus around for reads
system.mem_ctrls0.wrPerTurnAround::20             258      0.15%     99.99% # Writes before turning the bus around for reads
system.mem_ctrls0.wrPerTurnAround::21              17      0.01%    100.00% # Writes before turning the bus around for reads
system.mem_ctrls0.wrPerTurnAround::22               3      0.00%    100.00% # Writes before turning the bus around for reads
system.mem_ctrls0.wrPerTurnAround::30               1      0.00%    100.00% # Writes before turning the bus around for reads
system.mem_ctrls0.wrPerTurnAround::total       168971                       # Writes before turning the bus around for reads
system.mem_ctrls0.totQLat                146609139893                       # Total ticks spent queuing
system.mem_ctrls0.totMemAccLat           277105052393                       # Total ticks spent from burst creation until serviced by the DRAM
system.mem_ctrls0.totBusLat               34798910000                       # Total ticks spent in databus transfers
system.mem_ctrls0.avgQLat                    21065.19                       # Average queueing delay per DRAM burst
system.mem_ctrls0.avgBusLat                   5000.00                       # Average bus latency per DRAM burst
system.mem_ctrls0.avgMemAccLat               39815.19                       # Average memory access latency per DRAM burst
system.mem_ctrls0.avgRdBW                      159.00                       # Average DRAM read bandwidth in MiByte/s
system.mem_ctrls0.avgWrBW                       66.84                       # Average achieved write bandwidth in MiByte/s
system.mem_ctrls0.avgRdBWSys                   159.06                       # Average system read bandwidth in MiByte/s
system.mem_ctrls0.avgWrBWSys                    66.84                       # Average system write bandwidth in MiByte/s
system.mem_ctrls0.peakBW                     12800.00                       # Theoretical peak bandwidth in MiByte/s
system.mem_ctrls0.busUtil                        1.76                       # Data bus utilization in percentage
system.mem_ctrls0.busUtilRead                    1.24                       # Data bus utilization in percentage for reads
system.mem_ctrls0.busUtilWrite                   0.52                       # Data bus utilization in percentage for writes
system.mem_ctrls0.avgRdQLen                      1.02                       # Average read queue length when enqueuing
system.mem_ctrls0.avgWrQLen                     24.76                       # Average write queue length when enqueuing
system.mem_ctrls0.readRowHits                 3614832                       # Number of row buffer hits during reads
system.mem_ctrls0.writeRowHits                  51475                       # Number of row buffer hits during writes
system.mem_ctrls0.readRowHitRate                51.94                       # Row buffer hit rate for reads
system.mem_ctrls0.writeRowHitRate                1.76                       # Row buffer hit rate for writes
system.mem_ctrls0.avgGap                    283301.07                       # Average gap between requests
system.mem_ctrls0.pageHitRate                   37.09                       # Row buffer hit rate, read and write combined
system.mem_ctrls0_0.actEnergy             22254780240                       # Energy for activate commands per rank (pJ)
system.mem_ctrls0_0.preEnergy             11828673450                       # Energy for precharge commands per rank (pJ)
system.mem_ctrls0_0.readEnergy            24936749880                       # Energy for read commands per rank (pJ)
system.mem_ctrls0_0.writeEnergy            7669714680                       # Energy for write commands per rank (pJ)
system.mem_ctrls0_0.refreshEnergy        222298078080.000061                       # Energy for refresh commands per rank (pJ)
system.mem_ctrls0_0.actBackEnergy        164606154960                       # Energy for active background per rank (pJ)
system.mem_ctrls0_0.preBackEnergy          5511815520                       # Energy for precharge background per rank (pJ)
system.mem_ctrls0_0.actPowerDownEnergy   928419329370                       # Energy for active power-down per rank (pJ)
system.mem_ctrls0_0.prePowerDownEnergy   134785042080                       # Energy for precharge power-down per rank (pJ)
system.mem_ctrls0_0.selfRefreshEnergy     13495943160                       # Energy for self refresh per rank (pJ)
system.mem_ctrls0_0.totalEnergy          1535838374100                       # Total energy per rank (pJ)
system.mem_ctrls0_0.averagePower           548.222160                       # Core power per rank (mW)
system.mem_ctrls0_0.totalIdleTime        2426094089951                       # Total Idle time Per DRAM Rank
system.mem_ctrls0_0.memoryStateTime::IDLE   3995053851                       # Time in different power states
system.mem_ctrls0_0.memoryStateTime::REF  94082192000                       # Time in different power states
system.mem_ctrls0_0.memoryStateTime::SREF  39075641235                       # Time in different power states
system.mem_ctrls0_0.memoryStateTime::PRE_PDN 351004750502                       # Time in different power states
system.mem_ctrls0_0.memoryStateTime::ACT 277317102575                       # Time in different power states
system.mem_ctrls0_0.memoryStateTime::ACT_PDN 2036014297839                       # Time in different power states
system.mem_ctrls0_1.actEnergy             22151742900                       # Energy for activate commands per rank (pJ)
system.mem_ctrls0_1.preEnergy             11773915395                       # Energy for precharge commands per rank (pJ)
system.mem_ctrls0_1.readEnergy            24756093600                       # Energy for read commands per rank (pJ)
system.mem_ctrls0_1.writeEnergy            7603619040                       # Energy for write commands per rank (pJ)
system.mem_ctrls0_1.refreshEnergy        222405025440.000061                       # Energy for refresh commands per rank (pJ)
system.mem_ctrls0_1.actBackEnergy        164275030560                       # Energy for active background per rank (pJ)
system.mem_ctrls0_1.preBackEnergy          5531192160                       # Energy for precharge background per rank (pJ)
system.mem_ctrls0_1.actPowerDownEnergy   926382604800                       # Energy for active power-down per rank (pJ)
system.mem_ctrls0_1.prePowerDownEnergy   136381497600                       # Energy for precharge power-down per rank (pJ)
system.mem_ctrls0_1.selfRefreshEnergy     13910723745                       # Energy for self refresh per rank (pJ)
system.mem_ctrls0_1.totalEnergy          1535205903270                       # Total energy per rank (pJ)
system.mem_ctrls0_1.averagePower           547.996393                       # Core power per rank (mW)
system.mem_ctrls0_1.totalIdleTime        2426760685381                       # Total Idle time Per DRAM Rank
system.mem_ctrls0_1.memoryStateTime::IDLE   4088246478                       # Time in different power states
system.mem_ctrls0_1.memoryStateTime::REF  94129310000                       # Time in different power states
system.mem_ctrls0_1.memoryStateTime::SREF  40055097857                       # Time in different power states
system.mem_ctrls0_1.memoryStateTime::PRE_PDN 355161795757                       # Time in different power states
system.mem_ctrls0_1.memoryStateTime::ACT 276510699681                       # Time in different power states
system.mem_ctrls0_1.memoryStateTime::ACT_PDN 2031543888229                       # Time in different power states
system.mem_ctrls1.pwrStateResidencyTicks::UNDEFINED 129754485562734                       # Cumulative time (in ticks) in various power states
system.mem_ctrls1.bytes_read::cpu.data            128                       # Number of bytes read from this memory
system.mem_ctrls1.bytes_read::switch_cpus.inst       696640                       # Number of bytes read from this memory
system.mem_ctrls1.bytes_read::switch_cpus.data    364081472                       # Number of bytes read from this memory
system.mem_ctrls1.bytes_read::switch_cpus_1.inst       191168                       # Number of bytes read from this memory
system.mem_ctrls1.bytes_read::switch_cpus_1.data     81600832                       # Number of bytes read from this memory
system.mem_ctrls1.bytes_read::total         446570240                       # Number of bytes read from this memory
system.mem_ctrls1.bytes_inst_read::switch_cpus.inst       696640                       # Number of instructions bytes read from this memory
system.mem_ctrls1.bytes_inst_read::switch_cpus_1.inst       191168                       # Number of instructions bytes read from this memory
system.mem_ctrls1.bytes_inst_read::total       887808                       # Number of instructions bytes read from this memory
system.mem_ctrls1.bytes_written::writebacks    186950144                       # Number of bytes written to this memory
system.mem_ctrls1.bytes_written::total      186950144                       # Number of bytes written to this memory
system.mem_ctrls1.num_reads::cpu.data               2                       # Number of read requests responded to by this memory
system.mem_ctrls1.num_reads::switch_cpus.inst        10885                       # Number of read requests responded to by this memory
system.mem_ctrls1.num_reads::switch_cpus.data      5688773                       # Number of read requests responded to by this memory
system.mem_ctrls1.num_reads::switch_cpus_1.inst         2987                       # Number of read requests responded to by this memory
system.mem_ctrls1.num_reads::switch_cpus_1.data      1275013                       # Number of read requests responded to by this memory
system.mem_ctrls1.num_reads::total            6977660                       # Number of read requests responded to by this memory
system.mem_ctrls1.num_writes::writebacks      2921096                       # Number of write requests responded to by this memory
system.mem_ctrls1.num_writes::total           2921096                       # Number of write requests responded to by this memory
system.mem_ctrls1.bw_read::cpu.data                46                       # Total read bandwidth from this memory (bytes/s)
system.mem_ctrls1.bw_read::switch_cpus.inst       248668                       # Total read bandwidth from this memory (bytes/s)
system.mem_ctrls1.bw_read::switch_cpus.data    129959985                       # Total read bandwidth from this memory (bytes/s)
system.mem_ctrls1.bw_read::switch_cpus_1.inst        68238                       # Total read bandwidth from this memory (bytes/s)
system.mem_ctrls1.bw_read::switch_cpus_1.data     29127664                       # Total read bandwidth from this memory (bytes/s)
system.mem_ctrls1.bw_read::total            159404600                       # Total read bandwidth from this memory (bytes/s)
system.mem_ctrls1.bw_inst_read::switch_cpus.inst       248668                       # Instruction read bandwidth from this memory (bytes/s)
system.mem_ctrls1.bw_inst_read::switch_cpus_1.inst        68238                       # Instruction read bandwidth from this memory (bytes/s)
system.mem_ctrls1.bw_inst_read::total          316906                       # Instruction read bandwidth from this memory (bytes/s)
system.mem_ctrls1.bw_write::writebacks       66732420                       # Write bandwidth from this memory (bytes/s)
system.mem_ctrls1.bw_write::total            66732420                       # Write bandwidth from this memory (bytes/s)
system.mem_ctrls1.bw_total::writebacks       66732420                       # Total bandwidth to/from this memory (bytes/s)
system.mem_ctrls1.bw_total::cpu.data               46                       # Total bandwidth to/from this memory (bytes/s)
system.mem_ctrls1.bw_total::switch_cpus.inst       248668                       # Total bandwidth to/from this memory (bytes/s)
system.mem_ctrls1.bw_total::switch_cpus.data    129959985                       # Total bandwidth to/from this memory (bytes/s)
system.mem_ctrls1.bw_total::switch_cpus_1.inst        68238                       # Total bandwidth to/from this memory (bytes/s)
system.mem_ctrls1.bw_total::switch_cpus_1.data     29127664                       # Total bandwidth to/from this memory (bytes/s)
system.mem_ctrls1.bw_total::total           226137020                       # Total bandwidth to/from this memory (bytes/s)
system.mem_ctrls1.readReqs                    6977660                       # Number of read requests accepted
system.mem_ctrls1.writeReqs                   2921096                       # Number of write requests accepted
system.mem_ctrls1.readBursts                  6977660                       # Number of DRAM read bursts, including those serviced by the write queue
system.mem_ctrls1.writeBursts                 2921096                       # Number of DRAM write bursts, including those merged in the write queue
system.mem_ctrls1.bytesReadDRAM             446383104                       # Total number of bytes read from DRAM
system.mem_ctrls1.bytesReadWrQ                 187136                       # Total number of bytes read from write queue
system.mem_ctrls1.bytesWritten              186948096                       # Total number of bytes written to DRAM
system.mem_ctrls1.bytesReadSys              446570240                       # Total read bytes from the system interface side
system.mem_ctrls1.bytesWrittenSys           186950144                       # Total written bytes from the system interface side
system.mem_ctrls1.servicedByWrQ                  2924                       # Number of DRAM read bursts serviced by the write queue
system.mem_ctrls1.mergedWrBursts                    0                       # Number of DRAM write bursts merged with an existing one
system.mem_ctrls1.neitherReadNorWriteReqs            0                       # Number of requests that are neither read nor write
system.mem_ctrls1.perBankRdBursts::0           431188                       # Per bank write bursts
system.mem_ctrls1.perBankRdBursts::1           437882                       # Per bank write bursts
system.mem_ctrls1.perBankRdBursts::2           438194                       # Per bank write bursts
system.mem_ctrls1.perBankRdBursts::3           428583                       # Per bank write bursts
system.mem_ctrls1.perBankRdBursts::4           423213                       # Per bank write bursts
system.mem_ctrls1.perBankRdBursts::5           439130                       # Per bank write bursts
system.mem_ctrls1.perBankRdBursts::6           450457                       # Per bank write bursts
system.mem_ctrls1.perBankRdBursts::7           445133                       # Per bank write bursts
system.mem_ctrls1.perBankRdBursts::8           458684                       # Per bank write bursts
system.mem_ctrls1.perBankRdBursts::9           444116                       # Per bank write bursts
system.mem_ctrls1.perBankRdBursts::10          425516                       # Per bank write bursts
system.mem_ctrls1.perBankRdBursts::11          426145                       # Per bank write bursts
system.mem_ctrls1.perBankRdBursts::12          422677                       # Per bank write bursts
system.mem_ctrls1.perBankRdBursts::13          434319                       # Per bank write bursts
system.mem_ctrls1.perBankRdBursts::14          438660                       # Per bank write bursts
system.mem_ctrls1.perBankRdBursts::15          430839                       # Per bank write bursts
system.mem_ctrls1.perBankWrBursts::0           180443                       # Per bank write bursts
system.mem_ctrls1.perBankWrBursts::1           180688                       # Per bank write bursts
system.mem_ctrls1.perBankWrBursts::2           182179                       # Per bank write bursts
system.mem_ctrls1.perBankWrBursts::3           177643                       # Per bank write bursts
system.mem_ctrls1.perBankWrBursts::4           179290                       # Per bank write bursts
system.mem_ctrls1.perBankWrBursts::5           182293                       # Per bank write bursts
system.mem_ctrls1.perBankWrBursts::6           189614                       # Per bank write bursts
system.mem_ctrls1.perBankWrBursts::7           185330                       # Per bank write bursts
system.mem_ctrls1.perBankWrBursts::8           193417                       # Per bank write bursts
system.mem_ctrls1.perBankWrBursts::9           181978                       # Per bank write bursts
system.mem_ctrls1.perBankWrBursts::10          182237                       # Per bank write bursts
system.mem_ctrls1.perBankWrBursts::11          180350                       # Per bank write bursts
system.mem_ctrls1.perBankWrBursts::12          176192                       # Per bank write bursts
system.mem_ctrls1.perBankWrBursts::13          182135                       # Per bank write bursts
system.mem_ctrls1.perBankWrBursts::14          185065                       # Per bank write bursts
system.mem_ctrls1.perBankWrBursts::15          182210                       # Per bank write bursts
system.mem_ctrls1.numRdRetry                        0                       # Number of times read queue was full causing retry
system.mem_ctrls1.numWrRetry                        0                       # Number of times write queue was full causing retry
system.mem_ctrls1.totGap                 2801488601106                       # Total gap between requests
system.mem_ctrls1.readPktSize::0                    0                       # Read request sizes (log2)
system.mem_ctrls1.readPktSize::1                    0                       # Read request sizes (log2)
system.mem_ctrls1.readPktSize::2                    0                       # Read request sizes (log2)
system.mem_ctrls1.readPktSize::3                    0                       # Read request sizes (log2)
system.mem_ctrls1.readPktSize::4                    0                       # Read request sizes (log2)
system.mem_ctrls1.readPktSize::5                    0                       # Read request sizes (log2)
system.mem_ctrls1.readPktSize::6              6977660                       # Read request sizes (log2)
system.mem_ctrls1.writePktSize::0                   0                       # Write request sizes (log2)
system.mem_ctrls1.writePktSize::1                   0                       # Write request sizes (log2)
system.mem_ctrls1.writePktSize::2                   0                       # Write request sizes (log2)
system.mem_ctrls1.writePktSize::3                   0                       # Write request sizes (log2)
system.mem_ctrls1.writePktSize::4                   0                       # Write request sizes (log2)
system.mem_ctrls1.writePktSize::5                   0                       # Write request sizes (log2)
system.mem_ctrls1.writePktSize::6             2921096                       # Write request sizes (log2)
system.mem_ctrls1.rdQLenPdf::0                6701876                       # What read queue length does an incoming req see
system.mem_ctrls1.rdQLenPdf::1                 240560                       # What read queue length does an incoming req see
system.mem_ctrls1.rdQLenPdf::2                  30363                       # What read queue length does an incoming req see
system.mem_ctrls1.rdQLenPdf::3                   1935                       # What read queue length does an incoming req see
system.mem_ctrls1.rdQLenPdf::4                      2                       # What read queue length does an incoming req see
system.mem_ctrls1.rdQLenPdf::5                      0                       # What read queue length does an incoming req see
system.mem_ctrls1.rdQLenPdf::6                      0                       # What read queue length does an incoming req see
system.mem_ctrls1.rdQLenPdf::7                      0                       # What read queue length does an incoming req see
system.mem_ctrls1.rdQLenPdf::8                      0                       # What read queue length does an incoming req see
system.mem_ctrls1.rdQLenPdf::9                      0                       # What read queue length does an incoming req see
system.mem_ctrls1.rdQLenPdf::10                     0                       # What read queue length does an incoming req see
system.mem_ctrls1.rdQLenPdf::11                     0                       # What read queue length does an incoming req see
system.mem_ctrls1.rdQLenPdf::12                     0                       # What read queue length does an incoming req see
system.mem_ctrls1.rdQLenPdf::13                     0                       # What read queue length does an incoming req see
system.mem_ctrls1.rdQLenPdf::14                     0                       # What read queue length does an incoming req see
system.mem_ctrls1.rdQLenPdf::15                     0                       # What read queue length does an incoming req see
system.mem_ctrls1.rdQLenPdf::16                     0                       # What read queue length does an incoming req see
system.mem_ctrls1.rdQLenPdf::17                     0                       # What read queue length does an incoming req see
system.mem_ctrls1.rdQLenPdf::18                     0                       # What read queue length does an incoming req see
system.mem_ctrls1.rdQLenPdf::19                     0                       # What read queue length does an incoming req see
system.mem_ctrls1.rdQLenPdf::20                     0                       # What read queue length does an incoming req see
system.mem_ctrls1.rdQLenPdf::21                     0                       # What read queue length does an incoming req see
system.mem_ctrls1.rdQLenPdf::22                     0                       # What read queue length does an incoming req see
system.mem_ctrls1.rdQLenPdf::23                     0                       # What read queue length does an incoming req see
system.mem_ctrls1.rdQLenPdf::24                     0                       # What read queue length does an incoming req see
system.mem_ctrls1.rdQLenPdf::25                     0                       # What read queue length does an incoming req see
system.mem_ctrls1.rdQLenPdf::26                     0                       # What read queue length does an incoming req see
system.mem_ctrls1.rdQLenPdf::27                     0                       # What read queue length does an incoming req see
system.mem_ctrls1.rdQLenPdf::28                     0                       # What read queue length does an incoming req see
system.mem_ctrls1.rdQLenPdf::29                     0                       # What read queue length does an incoming req see
system.mem_ctrls1.rdQLenPdf::30                     0                       # What read queue length does an incoming req see
system.mem_ctrls1.rdQLenPdf::31                     0                       # What read queue length does an incoming req see
system.mem_ctrls1.wrQLenPdf::0                      2                       # What write queue length does an incoming req see
system.mem_ctrls1.wrQLenPdf::1                      2                       # What write queue length does an incoming req see
system.mem_ctrls1.wrQLenPdf::2                      2                       # What write queue length does an incoming req see
system.mem_ctrls1.wrQLenPdf::3                      2                       # What write queue length does an incoming req see
system.mem_ctrls1.wrQLenPdf::4                      2                       # What write queue length does an incoming req see
system.mem_ctrls1.wrQLenPdf::5                      2                       # What write queue length does an incoming req see
system.mem_ctrls1.wrQLenPdf::6                      2                       # What write queue length does an incoming req see
system.mem_ctrls1.wrQLenPdf::7                      2                       # What write queue length does an incoming req see
system.mem_ctrls1.wrQLenPdf::8                      2                       # What write queue length does an incoming req see
system.mem_ctrls1.wrQLenPdf::9                      2                       # What write queue length does an incoming req see
system.mem_ctrls1.wrQLenPdf::10                     2                       # What write queue length does an incoming req see
system.mem_ctrls1.wrQLenPdf::11                     2                       # What write queue length does an incoming req see
system.mem_ctrls1.wrQLenPdf::12                     2                       # What write queue length does an incoming req see
system.mem_ctrls1.wrQLenPdf::13                     2                       # What write queue length does an incoming req see
system.mem_ctrls1.wrQLenPdf::14                     2                       # What write queue length does an incoming req see
system.mem_ctrls1.wrQLenPdf::15                105918                       # What write queue length does an incoming req see
system.mem_ctrls1.wrQLenPdf::16                110344                       # What write queue length does an incoming req see
system.mem_ctrls1.wrQLenPdf::17                165811                       # What write queue length does an incoming req see
system.mem_ctrls1.wrQLenPdf::18                168910                       # What write queue length does an incoming req see
system.mem_ctrls1.wrQLenPdf::19                169058                       # What write queue length does an incoming req see
system.mem_ctrls1.wrQLenPdf::20                169079                       # What write queue length does an incoming req see
system.mem_ctrls1.wrQLenPdf::21                169066                       # What write queue length does an incoming req see
system.mem_ctrls1.wrQLenPdf::22                169020                       # What write queue length does an incoming req see
system.mem_ctrls1.wrQLenPdf::23                169128                       # What write queue length does an incoming req see
system.mem_ctrls1.wrQLenPdf::24                169103                       # What write queue length does an incoming req see
system.mem_ctrls1.wrQLenPdf::25                169141                       # What write queue length does an incoming req see
system.mem_ctrls1.wrQLenPdf::26                171073                       # What write queue length does an incoming req see
system.mem_ctrls1.wrQLenPdf::27                169307                       # What write queue length does an incoming req see
system.mem_ctrls1.wrQLenPdf::28                169048                       # What write queue length does an incoming req see
system.mem_ctrls1.wrQLenPdf::29                169259                       # What write queue length does an incoming req see
system.mem_ctrls1.wrQLenPdf::30                170258                       # What write queue length does an incoming req see
system.mem_ctrls1.wrQLenPdf::31                168755                       # What write queue length does an incoming req see
system.mem_ctrls1.wrQLenPdf::32                168732                       # What write queue length does an incoming req see
system.mem_ctrls1.wrQLenPdf::33                    49                       # What write queue length does an incoming req see
system.mem_ctrls1.wrQLenPdf::34                     7                       # What write queue length does an incoming req see
system.mem_ctrls1.wrQLenPdf::35                     0                       # What write queue length does an incoming req see
system.mem_ctrls1.wrQLenPdf::36                     0                       # What write queue length does an incoming req see
system.mem_ctrls1.wrQLenPdf::37                     0                       # What write queue length does an incoming req see
system.mem_ctrls1.wrQLenPdf::38                     0                       # What write queue length does an incoming req see
system.mem_ctrls1.wrQLenPdf::39                     0                       # What write queue length does an incoming req see
system.mem_ctrls1.wrQLenPdf::40                     0                       # What write queue length does an incoming req see
system.mem_ctrls1.wrQLenPdf::41                     0                       # What write queue length does an incoming req see
system.mem_ctrls1.wrQLenPdf::42                     0                       # What write queue length does an incoming req see
system.mem_ctrls1.wrQLenPdf::43                     0                       # What write queue length does an incoming req see
system.mem_ctrls1.wrQLenPdf::44                     0                       # What write queue length does an incoming req see
system.mem_ctrls1.wrQLenPdf::45                     0                       # What write queue length does an incoming req see
system.mem_ctrls1.wrQLenPdf::46                     0                       # What write queue length does an incoming req see
system.mem_ctrls1.wrQLenPdf::47                     0                       # What write queue length does an incoming req see
system.mem_ctrls1.wrQLenPdf::48                     0                       # What write queue length does an incoming req see
system.mem_ctrls1.wrQLenPdf::49                     0                       # What write queue length does an incoming req see
system.mem_ctrls1.wrQLenPdf::50                     0                       # What write queue length does an incoming req see
system.mem_ctrls1.wrQLenPdf::51                     0                       # What write queue length does an incoming req see
system.mem_ctrls1.wrQLenPdf::52                     0                       # What write queue length does an incoming req see
system.mem_ctrls1.wrQLenPdf::53                     0                       # What write queue length does an incoming req see
system.mem_ctrls1.wrQLenPdf::54                     0                       # What write queue length does an incoming req see
system.mem_ctrls1.wrQLenPdf::55                     0                       # What write queue length does an incoming req see
system.mem_ctrls1.wrQLenPdf::56                     0                       # What write queue length does an incoming req see
system.mem_ctrls1.wrQLenPdf::57                     0                       # What write queue length does an incoming req see
system.mem_ctrls1.wrQLenPdf::58                     0                       # What write queue length does an incoming req see
system.mem_ctrls1.wrQLenPdf::59                     0                       # What write queue length does an incoming req see
system.mem_ctrls1.wrQLenPdf::60                     0                       # What write queue length does an incoming req see
system.mem_ctrls1.wrQLenPdf::61                     0                       # What write queue length does an incoming req see
system.mem_ctrls1.wrQLenPdf::62                     0                       # What write queue length does an incoming req see
system.mem_ctrls1.wrQLenPdf::63                     0                       # What write queue length does an incoming req see
system.mem_ctrls1.bytesPerActivate::samples      6211849                       # Bytes accessed per row activation
system.mem_ctrls1.bytesPerActivate::mean   101.955148                       # Bytes accessed per row activation
system.mem_ctrls1.bytesPerActivate::gmean    83.799911                       # Bytes accessed per row activation
system.mem_ctrls1.bytesPerActivate::stdev    94.633037                       # Bytes accessed per row activation
system.mem_ctrls1.bytesPerActivate::0-127      4670530     75.19%     75.19% # Bytes accessed per row activation
system.mem_ctrls1.bytesPerActivate::128-255      1078373     17.36%     92.55% # Bytes accessed per row activation
system.mem_ctrls1.bytesPerActivate::256-383       259963      4.18%     96.73% # Bytes accessed per row activation
system.mem_ctrls1.bytesPerActivate::384-511       109036      1.76%     98.49% # Bytes accessed per row activation
system.mem_ctrls1.bytesPerActivate::512-639        56224      0.91%     99.39% # Bytes accessed per row activation
system.mem_ctrls1.bytesPerActivate::640-767        22742      0.37%     99.76% # Bytes accessed per row activation
system.mem_ctrls1.bytesPerActivate::768-895         8079      0.13%     99.89% # Bytes accessed per row activation
system.mem_ctrls1.bytesPerActivate::896-1023         4005      0.06%     99.95% # Bytes accessed per row activation
system.mem_ctrls1.bytesPerActivate::1024-1151         2897      0.05%    100.00% # Bytes accessed per row activation
system.mem_ctrls1.bytesPerActivate::total      6211849                       # Bytes accessed per row activation
system.mem_ctrls1.rdPerTurnAround::samples       168722                       # Reads before turning the bus around for writes
system.mem_ctrls1.rdPerTurnAround::mean     41.338284                       # Reads before turning the bus around for writes
system.mem_ctrls1.rdPerTurnAround::gmean    39.658852                       # Reads before turning the bus around for writes
system.mem_ctrls1.rdPerTurnAround::stdev    60.788830                       # Reads before turning the bus around for writes
system.mem_ctrls1.rdPerTurnAround::0-1023       168721    100.00%    100.00% # Reads before turning the bus around for writes
system.mem_ctrls1.rdPerTurnAround::23552-24575            1      0.00%    100.00% # Reads before turning the bus around for writes
system.mem_ctrls1.rdPerTurnAround::total       168722                       # Reads before turning the bus around for writes
system.mem_ctrls1.wrPerTurnAround::samples       168722                       # Writes before turning the bus around for reads
system.mem_ctrls1.wrPerTurnAround::mean     17.312882                       # Writes before turning the bus around for reads
system.mem_ctrls1.wrPerTurnAround::gmean    17.284178                       # Writes before turning the bus around for reads
system.mem_ctrls1.wrPerTurnAround::stdev     0.987859                       # Writes before turning the bus around for reads
system.mem_ctrls1.wrPerTurnAround::16           58617     34.74%     34.74% # Writes before turning the bus around for reads
system.mem_ctrls1.wrPerTurnAround::17            3958      2.35%     37.09% # Writes before turning the bus around for reads
system.mem_ctrls1.wrPerTurnAround::18          101170     59.96%     97.05% # Writes before turning the bus around for reads
system.mem_ctrls1.wrPerTurnAround::19            4719      2.80%     99.85% # Writes before turning the bus around for reads
system.mem_ctrls1.wrPerTurnAround::20             235      0.14%     99.99% # Writes before turning the bus around for reads
system.mem_ctrls1.wrPerTurnAround::21              22      0.01%    100.00% # Writes before turning the bus around for reads
system.mem_ctrls1.wrPerTurnAround::23               1      0.00%    100.00% # Writes before turning the bus around for reads
system.mem_ctrls1.wrPerTurnAround::total       168722                       # Writes before turning the bus around for reads
system.mem_ctrls1.totQLat                146665939540                       # Total ticks spent queuing
system.mem_ctrls1.totMemAccLat           277442239540                       # Total ticks spent from burst creation until serviced by the DRAM
system.mem_ctrls1.totBusLat               34873680000                       # Total ticks spent in databus transfers
system.mem_ctrls1.avgQLat                    21028.17                       # Average queueing delay per DRAM burst
system.mem_ctrls1.avgBusLat                   5000.00                       # Average bus latency per DRAM burst
system.mem_ctrls1.avgMemAccLat               39778.17                       # Average memory access latency per DRAM burst
system.mem_ctrls1.avgRdBW                      159.34                       # Average DRAM read bandwidth in MiByte/s
system.mem_ctrls1.avgWrBW                       66.73                       # Average achieved write bandwidth in MiByte/s
system.mem_ctrls1.avgRdBWSys                   159.40                       # Average system read bandwidth in MiByte/s
system.mem_ctrls1.avgWrBWSys                    66.73                       # Average system write bandwidth in MiByte/s
system.mem_ctrls1.peakBW                     12800.00                       # Theoretical peak bandwidth in MiByte/s
system.mem_ctrls1.busUtil                        1.77                       # Data bus utilization in percentage
system.mem_ctrls1.busUtilRead                    1.24                       # Data bus utilization in percentage for reads
system.mem_ctrls1.busUtilWrite                   0.52                       # Data bus utilization in percentage for writes
system.mem_ctrls1.avgRdQLen                      1.02                       # Average read queue length when enqueuing
system.mem_ctrls1.avgWrQLen                     24.75                       # Average write queue length when enqueuing
system.mem_ctrls1.readRowHits                 3632263                       # Number of row buffer hits during reads
system.mem_ctrls1.writeRowHits                  51680                       # Number of row buffer hits during writes
system.mem_ctrls1.readRowHitRate                52.08                       # Row buffer hit rate for reads
system.mem_ctrls1.writeRowHitRate                1.77                       # Row buffer hit rate for writes
system.mem_ctrls1.avgGap                    283014.21                       # Average gap between requests
system.mem_ctrls1.pageHitRate                   37.23                       # Row buffer hit rate, read and write combined
system.mem_ctrls1_0.actEnergy             22167757920                       # Energy for activate commands per rank (pJ)
system.mem_ctrls1_0.preEnergy             11782427580                       # Energy for precharge commands per rank (pJ)
system.mem_ctrls1_0.readEnergy            24945589200                       # Energy for read commands per rank (pJ)
system.mem_ctrls1_0.writeEnergy            7608045600                       # Energy for write commands per rank (pJ)
system.mem_ctrls1_0.refreshEnergy        222233540880.000061                       # Energy for refresh commands per rank (pJ)
system.mem_ctrls1_0.actBackEnergy        163772260920                       # Energy for active background per rank (pJ)
system.mem_ctrls1_0.preBackEnergy          5491038240                       # Energy for precharge background per rank (pJ)
system.mem_ctrls1_0.actPowerDownEnergy   930437226270                       # Energy for active power-down per rank (pJ)
system.mem_ctrls1_0.prePowerDownEnergy   134147704800                       # Energy for precharge power-down per rank (pJ)
system.mem_ctrls1_0.selfRefreshEnergy     13154795085                       # Energy for self refresh per rank (pJ)
system.mem_ctrls1_0.totalEnergy          1535771841225                       # Total energy per rank (pJ)
system.mem_ctrls1_0.averagePower           548.198409                       # Core power per rank (mW)
system.mem_ctrls1_0.totalIdleTime        2427971721489                       # Total Idle time Per DRAM Rank
system.mem_ctrls1_0.memoryStateTime::IDLE   3938169609                       # Time in different power states
system.mem_ctrls1_0.memoryStateTime::REF  94053512000                       # Time in different power states
system.mem_ctrls1_0.memoryStateTime::SREF  38194317191                       # Time in different power states
system.mem_ctrls1_0.memoryStateTime::PRE_PDN 349341817533                       # Time in different power states
system.mem_ctrls1_0.memoryStateTime::ACT 275524650003                       # Time in different power states
system.mem_ctrls1_0.memoryStateTime::ACT_PDN 2040436571666                       # Time in different power states
system.mem_ctrls1_1.actEnergy             22184901060                       # Energy for activate commands per rank (pJ)
system.mem_ctrls1_1.preEnergy             11791539375                       # Energy for precharge commands per rank (pJ)
system.mem_ctrls1_1.readEnergy            24854025840                       # Energy for read commands per rank (pJ)
system.mem_ctrls1_1.writeEnergy            7639908480                       # Energy for write commands per rank (pJ)
system.mem_ctrls1_1.refreshEnergy        222361386000.000061                       # Energy for refresh commands per rank (pJ)
system.mem_ctrls1_1.actBackEnergy        164410586820                       # Energy for active background per rank (pJ)
system.mem_ctrls1_1.preBackEnergy          5538648000                       # Energy for precharge background per rank (pJ)
system.mem_ctrls1_1.actPowerDownEnergy   927077530560                       # Energy for active power-down per rank (pJ)
system.mem_ctrls1_1.prePowerDownEnergy   135551140320                       # Energy for precharge power-down per rank (pJ)
system.mem_ctrls1_1.selfRefreshEnergy     13969355400                       # Energy for self refresh per rank (pJ)
system.mem_ctrls1_1.totalEnergy          1535406777945                       # Total energy per rank (pJ)
system.mem_ctrls1_1.averagePower           548.068099                       # Core power per rank (mW)
system.mem_ctrls1_1.totalIdleTime        2426458388458                       # Total Idle time Per DRAM Rank
system.mem_ctrls1_1.memoryStateTime::IDLE   4081671028                       # Time in different power states
system.mem_ctrls1_1.memoryStateTime::REF  94110622000                       # Time in different power states
system.mem_ctrls1_1.memoryStateTime::SREF  40391707839                       # Time in different power states
system.mem_ctrls1_1.memoryStateTime::PRE_PDN 352994825924                       # Time in different power states
system.mem_ctrls1_1.memoryStateTime::ACT 276838015396                       # Time in different power states
system.mem_ctrls1_1.memoryStateTime::ACT_PDN 2033072195815                       # Time in different power states
system.pwrStateResidencyTicks::UNDEFINED 129754485562734                       # Cumulative time (in ticks) in various power states
system.cpu.branchPred.lookups                       3                       # Number of BP lookups
system.cpu.branchPred.condPredicted                 3                       # Number of conditional branches predicted
system.cpu.branchPred.condIncorrect                 1                       # Number of conditional branches incorrect
system.cpu.branchPred.BTBLookups                    0                       # Number of BTB lookups
system.cpu.branchPred.BTBHits                       0                       # Number of BTB hits
system.cpu.branchPred.BTBCorrect                    0                       # Number of correct BTB predictions (this stat may not work properly.
system.cpu.branchPred.BTBHitPct                   nan                       # BTB Hit Percentage
system.cpu.branchPred.usedRAS                       0                       # Number of times the RAS was used to get a target.
system.cpu.branchPred.RASInCorrect                  0                       # Number of incorrect RAS predictions.
system.cpu.branchPred.indirectLookups               0                       # Number of indirect predictor lookups.
system.cpu.branchPred.indirectHits                  0                       # Number of indirect target hits.
system.cpu.branchPred.indirectMisses                0                       # Number of indirect misses.
system.cpu.branchPredindirectMispredicted            0                       # Number of mispredicted indirect branches.
system.cpu_voltage_domain.voltage                   1                       # Voltage in Volts
system.cpu_clk_domain.clock                       333                       # Clock period in ticks
system.cpu.dtb.fetch_hits                           0                       # ITB hits
system.cpu.dtb.fetch_misses                         0                       # ITB misses
system.cpu.dtb.fetch_acv                            0                       # ITB acv
system.cpu.dtb.fetch_accesses                       0                       # ITB accesses
system.cpu.dtb.read_hits                            2                       # DTB read hits
system.cpu.dtb.read_misses                          0                       # DTB read misses
system.cpu.dtb.read_acv                             0                       # DTB read access violations
system.cpu.dtb.read_accesses                        2                       # DTB read accesses
system.cpu.dtb.write_hits                           0                       # DTB write hits
system.cpu.dtb.write_misses                         0                       # DTB write misses
system.cpu.dtb.write_acv                            0                       # DTB write access violations
system.cpu.dtb.write_accesses                       0                       # DTB write accesses
system.cpu.dtb.data_hits                            2                       # DTB hits
system.cpu.dtb.data_misses                          0                       # DTB misses
system.cpu.dtb.data_acv                             0                       # DTB access violations
system.cpu.dtb.data_accesses                        2                       # DTB accesses
system.cpu.itb.fetch_hits                           3                       # ITB hits
system.cpu.itb.fetch_misses                         0                       # ITB misses
system.cpu.itb.fetch_acv                            0                       # ITB acv
system.cpu.itb.fetch_accesses                       3                       # ITB accesses
system.cpu.itb.read_hits                            0                       # DTB read hits
system.cpu.itb.read_misses                          0                       # DTB read misses
system.cpu.itb.read_acv                             0                       # DTB read access violations
system.cpu.itb.read_accesses                        0                       # DTB read accesses
system.cpu.itb.write_hits                           0                       # DTB write hits
system.cpu.itb.write_misses                         0                       # DTB write misses
system.cpu.itb.write_acv                            0                       # DTB write access violations
system.cpu.itb.write_accesses                       0                       # DTB write accesses
system.cpu.itb.data_hits                            0                       # DTB hits
system.cpu.itb.data_misses                          0                       # DTB misses
system.cpu.itb.data_acv                             0                       # DTB access violations
system.cpu.itb.data_accesses                        0                       # DTB accesses
system.cpu.workload.num_syscalls                    0                       # Number of system calls
system.cpu.pwrStateResidencyTicks::ON    2801489038002                       # Cumulative time (in ticks) in various power states
system.cpu.numCycles                              363                       # number of cpu cycles simulated
system.cpu.numWorkItemsStarted                      0                       # number of work items this cpu started
system.cpu.numWorkItemsCompleted                    0                       # number of work items this cpu completed
system.cpu.fetch.icacheStallCycles                 19                       # Number of cycles fetch is stalled on an Icache miss
system.cpu.fetch.Insts                              9                       # Number of instructions fetch has processed
system.cpu.fetch.Branches                           3                       # Number of branches that fetch encountered
system.cpu.fetch.Cycles                             2                       # Number of cycles fetch has run and was not squashing or blocked
system.cpu.fetch.SquashCycles                       5                       # Number of cycles fetch has spent squashing
system.cpu.fetch.PendingDrainCycles                 3                       # Number of cycles fetch has spent waiting on pipes to drain
system.cpu.fetch.CacheLines                         3                       # Number of cache lines fetched
system.cpu.fetch.IcacheSquashes                     2                       # Number of outstanding Icache misses that were squashed
system.cpu.fetch.rateDist::samples                 26                       # Number of instructions fetched each cycle (Total)
system.cpu.fetch.rateDist::mean              0.346154                       # Number of instructions fetched each cycle (Total)
system.cpu.fetch.rateDist::stdev             1.573336                       # Number of instructions fetched each cycle (Total)
system.cpu.fetch.rateDist::underflows               0      0.00%      0.00% # Number of instructions fetched each cycle (Total)
system.cpu.fetch.rateDist::0                       24     92.31%     92.31% # Number of instructions fetched each cycle (Total)
system.cpu.fetch.rateDist::1                        1      3.85%     96.15% # Number of instructions fetched each cycle (Total)
system.cpu.fetch.rateDist::2                        0      0.00%     96.15% # Number of instructions fetched each cycle (Total)
system.cpu.fetch.rateDist::3                        0      0.00%     96.15% # Number of instructions fetched each cycle (Total)
system.cpu.fetch.rateDist::4                        0      0.00%     96.15% # Number of instructions fetched each cycle (Total)
system.cpu.fetch.rateDist::5                        0      0.00%     96.15% # Number of instructions fetched each cycle (Total)
system.cpu.fetch.rateDist::6                        0      0.00%     96.15% # Number of instructions fetched each cycle (Total)
system.cpu.fetch.rateDist::7                        0      0.00%     96.15% # Number of instructions fetched each cycle (Total)
system.cpu.fetch.rateDist::8                        1      3.85%    100.00% # Number of instructions fetched each cycle (Total)
system.cpu.fetch.rateDist::overflows                0      0.00%    100.00% # Number of instructions fetched each cycle (Total)
system.cpu.fetch.rateDist::min_value                0                       # Number of instructions fetched each cycle (Total)
system.cpu.fetch.rateDist::max_value                8                       # Number of instructions fetched each cycle (Total)
system.cpu.fetch.rateDist::total                   26                       # Number of instructions fetched each cycle (Total)
system.cpu.fetch.branchRate                  0.008264                       # Number of branch fetches per cycle
[...]
system.switch_cpus_1.iq.int_inst_queue_wakeup_accesses    320733256                       # Number of integer instruction queue wakeup accesses
system.switch_cpus_1.iq.fp_inst_queue_reads     69854800                       # Number of floating instruction queue reads
system.switch_cpus_1.iq.fp_inst_queue_writes    112218560                       # Number of floating instruction queue writes
system.switch_cpus_1.iq.fp_inst_queue_wakeup_accesses     28768138                       # Number of floating instruction queue wakeup accesses
system.switch_cpus_1.iq.int_alu_accesses    351435557                       # Number of integer alu accesses
system.switch_cpus_1.iq.fp_alu_accesses      35120877                       # Number of floating point alu accesses
system.switch_cpus_1.iew.lsq.thread0.forwLoads      9391128                       # Number of loads that had data forwarded from stores
system.switch_cpus_1.iew.lsq.thread0.invAddrLoads            0                       # Number of loads ignored due to an invalid address
system.switch_cpus_1.iew.lsq.thread0.squashedLoads     68227605                       # Number of loads squashed
system.switch_cpus_1.iew.lsq.thread0.ignoredResponses        27491                       # Number of memory responses ignored because the instruction is squashed
system.switch_cpus_1.iew.lsq.thread0.memOrderViolation        10980                       # Number of memory ordering violations
system.switch_cpus_1.iew.lsq.thread0.squashedStores     29536652                       # Number of stores squashed
system.switch_cpus_1.iew.lsq.thread0.invAddrSwpfs            0                       # Number of software prefetches ignored due to an invalid address
system.switch_cpus_1.iew.lsq.thread0.blockedLoads            0                       # Number of blocked loads due to partial load-store forwarding
system.switch_cpus_1.iew.lsq.thread0.rescheduledLoads          364                       # Number of loads that were rescheduled
system.switch_cpus_1.iew.lsq.thread0.cacheBlocked      2647821                       # Number of times an access to memory failed due to the cache being blocked
system.switch_cpus_1.iew.iewIdleCycles              0                       # Number of cycles IEW is idle
system.switch_cpus_1.iew.iewSquashCycles      3807370                       # Number of cycles IEW is squashing
system.switch_cpus_1.iew.iewBlockCycles     183051703                       # Number of cycles IEW is blocking
system.switch_cpus_1.iew.iewUnblockCycles    101865022                       # Number of cycles IEW is unblocking
system.switch_cpus_1.iew.iewDispatchedInsts    487406670                       # Number of instructions dispatched to IQ
system.switch_cpus_1.iew.iewDispSquashedInsts       129035                       # Number of squashed instructions skipped by dispatch
system.switch_cpus_1.iew.iewDispLoadInsts    115954861                       # Number of dispatched load instructions
system.switch_cpus_1.iew.iewDispStoreInsts     58765479                       # Number of dispatched store instructions
system.switch_cpus_1.iew.iewDispNonSpecInsts       528757                       # Number of dispatched non-speculative instructions
system.switch_cpus_1.iew.iewIQFullEvents      1253600                       # Number of times the IQ has become full, causing a stall
system.switch_cpus_1.iew.iewLSQFullEvents    100348852                       # Number of times the LSQ has become full, causing a stall
system.switch_cpus_1.iew.memOrderViolationEvents        10980                       # Number of memory order violations
system.switch_cpus_1.iew.predictedTakenIncorrect       748664                       # Number of branches that were predicted taken incorrectly
system.switch_cpus_1.iew.predictedNotTakenIncorrect      1142771                       # Number of branches that were predicted not taken incorrectly
system.switch_cpus_1.iew.branchMispredicts      1891435                       # Number of branch mispredicts detected at execute
system.switch_cpus_1.iew.iewExecutedInsts    375354485                       # Number of executed instructions
system.switch_cpus_1.iew.iewExecLoadInsts    102588787                       # Number of load instructions executed
system.switch_cpus_1.iew.iewExecSquashedInsts      4138891                       # Number of squashed instructions skipped in execute
system.switch_cpus_1.iew.exec_swp                   0                       # number of swp insts executed
system.switch_cpus_1.iew.exec_nop            23214022                       # number of nop insts executed
system.switch_cpus_1.iew.exec_refs          154893273                       # number of memory reference insts executed
system.switch_cpus_1.iew.exec_branches       72537379                       # Number of branches executed
system.switch_cpus_1.iew.exec_stores         52304486                       # Number of stores executed
system.switch_cpus_1.iew.exec_rate           0.478564                       # Inst execution rate
system.switch_cpus_1.iew.wb_sent            369999404                       # cumulative count of insts sent to commit
system.switch_cpus_1.iew.wb_count           349501394                       # cumulative count of insts written-back
system.switch_cpus_1.iew.wb_producers       176954762                       # num instructions producing a value
system.switch_cpus_1.iew.wb_consumers       259669587                       # num instructions consuming a value
system.switch_cpus_1.iew.wb_rate             0.445602                       # insts written-back per cycle
system.switch_cpus_1.iew.wb_fanout           0.681461                       # average fanout of values written-back
system.switch_cpus_1.commit.commitSquashedInsts    230814903                       # The number of squashed insts skipped by commit
system.switch_cpus_1.commit.commitNonSpecStalls       665598                       # The number of times commit has been forced to stall to communicate backwards
system.switch_cpus_1.commit.branchMispredicts      1453994                       # The number of times a branch was mispredicted
system.switch_cpus_1.commit.committed_per_cycle::samples    749909218                       # Number of insts commited each cycle
system.switch_cpus_1.commit.committed_per_cycle::mean     0.284827                       # Number of insts commited each cycle
system.switch_cpus_1.commit.committed_per_cycle::stdev     1.294672                       # Number of insts commited each cycle
system.switch_cpus_1.commit.committed_per_cycle::underflows            0      0.00%      0.00% # Number of insts commited each cycle
system.switch_cpus_1.commit.committed_per_cycle::0    695736875     92.78%     92.78% # Number of insts commited each cycle
system.switch_cpus_1.commit.committed_per_cycle::1     19871122      2.65%     95.43% # Number of insts commited each cycle
system.switch_cpus_1.commit.committed_per_cycle::2      6006330      0.80%     96.23% # Number of insts commited each cycle
system.switch_cpus_1.commit.committed_per_cycle::3      3708687      0.49%     96.72% # Number of insts commited each cycle
system.switch_cpus_1.commit.committed_per_cycle::4      3292745      0.44%     97.16% # Number of insts commited each cycle
system.switch_cpus_1.commit.committed_per_cycle::5      2543760      0.34%     97.50% # Number of insts commited each cycle
system.switch_cpus_1.commit.committed_per_cycle::6      1912855      0.26%     97.75% # Number of insts commited each cycle
system.switch_cpus_1.commit.committed_per_cycle::7      1477095      0.20%     97.95% # Number of insts commited each cycle
system.switch_cpus_1.commit.committed_per_cycle::8     15359749      2.05%    100.00% # Number of insts commited each cycle
system.switch_cpus_1.commit.committed_per_cycle::overflows            0      0.00%    100.00% # Number of insts commited each cycle
system.switch_cpus_1.commit.committed_per_cycle::min_value            0                       # Number of insts commited each cycle
system.switch_cpus_1.commit.committed_per_cycle::max_value            8                       # Number of insts commited each cycle
system.switch_cpus_1.commit.committed_per_cycle::total    749909218                       # Number of insts commited each cycle
system.switch_cpus_1.commit.committedInsts    213594410                       # Number of instructions committed
system.switch_cpus_1.commit.committedOps    213594410                       # Number of ops (including micro ops) committed
system.switch_cpus_1.commit.swp_count               0                       # Number of s/w prefetches committed
system.switch_cpus_1.commit.refs             76956073                       # Number of memory references committed
system.switch_cpus_1.commit.loads            47727246                       # Number of loads committed
system.switch_cpus_1.commit.membars            332799                       # Number of memory barriers committed
system.switch_cpus_1.commit.branches         42872050                       # Number of branches committed
system.switch_cpus_1.commit.fp_insts         19258208                       # Number of committed floating point instructions.
system.switch_cpus_1.commit.int_insts       185197309                       # Number of committed integer instructions.
system.switch_cpus_1.commit.function_calls      6276853                       # Number of function calls committed.
system.switch_cpus_1.commit.op_class_0::No_OpClass     13768422      6.45%      6.45% # Class of committed instruction
system.switch_cpus_1.commit.op_class_0::IntAlu    110964867     51.95%     58.40% # Class of committed instruction
system.switch_cpus_1.commit.op_class_0::IntMult        87084      0.04%     58.44% # Class of committed instruction
system.switch_cpus_1.commit.op_class_0::IntDiv            0      0.00%     58.44% # Class of committed instruction
system.switch_cpus_1.commit.op_class_0::FloatAdd      6284834      2.94%     61.38% # Class of committed instruction
system.switch_cpus_1.commit.op_class_0::FloatCmp      4706081      2.20%     63.58% # Class of committed instruction
system.switch_cpus_1.commit.op_class_0::FloatCvt       352967      0.17%     63.75% # Class of committed instruction
system.switch_cpus_1.commit.op_class_0::FloatMult        54220      0.03%     63.77% # Class of committed instruction
system.switch_cpus_1.commit.op_class_0::FloatMultAcc            0      0.00%     63.77% # Class of committed instruction
system.switch_cpus_1.commit.op_class_0::FloatDiv        87048      0.04%     63.82% # Class of committed instruction
system.switch_cpus_1.commit.op_class_0::FloatMisc            0      0.00%     63.82% # Class of committed instruction
system.switch_cpus_1.commit.op_class_0::FloatSqrt           15      0.00%     63.82% # Class of committed instruction
system.switch_cpus_1.commit.op_class_0::SimdAdd            0      0.00%     63.82% # Class of committed instruction
system.switch_cpus_1.commit.op_class_0::SimdAddAcc            0      0.00%     63.82% # Class of committed instruction
system.switch_cpus_1.commit.op_class_0::SimdAlu            0      0.00%     63.82% # Class of committed instruction
system.switch_cpus_1.commit.op_class_0::SimdCmp            0      0.00%     63.82% # Class of committed instruction
system.switch_cpus_1.commit.op_class_0::SimdCvt            0      0.00%     63.82% # Class of committed instruction
system.switch_cpus_1.commit.op_class_0::SimdMisc            0      0.00%     63.82% # Class of committed instruction
system.switch_cpus_1.commit.op_class_0::SimdMult            0      0.00%     63.82% # Class of committed instruction
system.switch_cpus_1.commit.op_class_0::SimdMultAcc            0      0.00%     63.82% # Class of committed instruction
system.switch_cpus_1.commit.op_class_0::SimdShift            0      0.00%     63.82% # Class of committed instruction
system.switch_cpus_1.commit.op_class_0::SimdShiftAcc            0      0.00%     63.82% # Class of committed instruction
system.switch_cpus_1.commit.op_class_0::SimdSqrt            0      0.00%     63.82% # Class of committed instruction
system.switch_cpus_1.commit.op_class_0::SimdFloatAdd            0      0.00%     63.82% # Class of committed instruction
system.switch_cpus_1.commit.op_class_0::SimdFloatAlu            0      0.00%     63.82% # Class of committed instruction
system.switch_cpus_1.commit.op_class_0::SimdFloatCmp            0      0.00%     63.82% # Class of committed instruction
system.switch_cpus_1.commit.op_class_0::SimdFloatCvt            0      0.00%     63.82% # Class of committed instruction
system.switch_cpus_1.commit.op_class_0::SimdFloatDiv            0      0.00%     63.82% # Class of committed instruction
system.switch_cpus_1.commit.op_class_0::SimdFloatMisc            0      0.00%     63.82% # Class of committed instruction
system.switch_cpus_1.commit.op_class_0::SimdFloatMult            0      0.00%     63.82% # Class of committed instruction
system.switch_cpus_1.commit.op_class_0::SimdFloatMultAcc            0      0.00%     63.82% # Class of committed instruction
system.switch_cpus_1.commit.op_class_0::SimdFloatSqrt            0      0.00%     63.82% # Class of committed instruction
system.switch_cpus_1.commit.op_class_0::MemRead     41999437     19.66%     83.48% # Class of committed instruction
system.switch_cpus_1.commit.op_class_0::MemWrite     27516392     12.88%     96.36% # Class of committed instruction
system.switch_cpus_1.commit.op_class_0::FloatMemRead      6060608      2.84%     99.20% # Class of committed instruction
system.switch_cpus_1.commit.op_class_0::FloatMemWrite      1712435      0.80%    100.00% # Class of committed instruction
system.switch_cpus_1.commit.op_class_0::IprAccess            0      0.00%    100.00% # Class of committed instruction
system.switch_cpus_1.commit.op_class_0::InstPrefetch            0      0.00%    100.00% # Class of committed instruction
system.switch_cpus_1.commit.op_class_0::total    213594410                       # Class of committed instruction
system.switch_cpus_1.commit.bw_lim_events     15359749                       # number cycles where commit BW limit reached
system.switch_cpus_1.rob.rob_reads         1148477435                       # The number of ROB reads
system.switch_cpus_1.rob.rob_writes         920747759                       # The number of ROB writes
system.switch_cpus_1.timesIdled                 23454                       # Number of times that the entire CPU went into an idle state and unscheduled itself
system.switch_cpus_1.idleCycles               2550477                       # Total number of cycles that the CPU has spent unscheduled due to idling
system.switch_cpus_1.committedInsts         200000000                       # Number of Instructions Simulated
system.switch_cpus_1.committedOps           200000000                       # Number of Ops (including micro ops) Simulated
system.switch_cpus_1.cpi                     3.921675                       # CPI: Cycles Per Instruction
system.switch_cpus_1.cpi_total               3.921675                       # CPI: Total CPI of All Threads
system.switch_cpus_1.ipc                     0.254993                       # IPC: Instructions Per Cycle
system.switch_cpus_1.ipc_total               0.254993                       # IPC: Total IPC of All Threads
system.switch_cpus_1.int_regfile_reads      476030451                       # number of integer regfile reads
system.switch_cpus_1.int_regfile_writes     219115980                       # number of integer regfile writes
system.switch_cpus_1.fp_regfile_reads        26328896                       # number of floating regfile reads
system.switch_cpus_1.fp_regfile_writes       19801390                       # number of floating regfile writes
system.switch_cpus_1.misc_regfile_reads        925573                       # number of misc regfile reads
system.switch_cpus_1.misc_regfile_writes       752604                       # number of misc regfile writes
system.tol3bus.snoop_filter.tot_requests     44292327                       # Total number of requests made to the snoop filter.
system.tol3bus.snoop_filter.hit_single_requests     22146737                       # Number of requests hitting in the snoop filter with a single holder of the requested data.
system.tol3bus.snoop_filter.hit_multi_requests            0                       # Number of requests hitting in the snoop filter with multiple (>1) holders of the requested data.
system.tol3bus.snoop_filter.tot_snoops          18265                       # Total number of snoops made to the snoop filter.
system.tol3bus.snoop_filter.hit_single_snoops        18265                       # Number of snoops hitting in the snoop filter with a single holder of the requested data.
system.tol3bus.snoop_filter.hit_multi_snoops            0                       # Number of snoops hitting in the snoop filter with multiple (>1) holders of the requested data.
system.tol3bus.pwrStateResidencyTicks::UNDEFINED 129754485562734                       # Cumulative time (in ticks) in various power states
system.tol3bus.trans_dist::ReadResp          18858210                       # Transaction distribution
system.tol3bus.trans_dist::WritebackDirty     16950865                       # Transaction distribution
system.tol3bus.trans_dist::CleanEvict        19070871                       # Transaction distribution
system.tol3bus.trans_dist::UpgradeReq            2040                       # Transaction distribution
system.tol3bus.trans_dist::UpgradeResp           2040                       # Transaction distribution
system.tol3bus.trans_dist::ReadExReq          3287380                       # Transaction distribution
system.tol3bus.trans_dist::ReadExResp         3287380                       # Transaction distribution
system.tol3bus.trans_dist::ReadSharedReq     18858210                       # Transaction distribution
system.tol3bus.pkt_count_system.cpu.l2.mem_side::system.l3.cpu_side     66439957                       # Packet count per connected master and slave (bytes)
system.tol3bus.pkt_size_system.cpu.l2.mem_side::system.l3.cpu_side   2127962432                       # Cumulative packet size per connected master and slave (bytes)
system.tol3bus.snoops                        13877039                       # Total snoops (count)
system.tol3bus.snoopTraffic                 374210688                       # Total snoop traffic (bytes)
system.tol3bus.snoop_fanout::samples         36024669                       # Request fanout histogram
system.tol3bus.snoop_fanout::mean            0.000507                       # Request fanout histogram
system.tol3bus.snoop_fanout::stdev           0.022511                       # Request fanout histogram
system.tol3bus.snoop_fanout::underflows             0      0.00%      0.00% # Request fanout histogram
system.tol3bus.snoop_fanout::0               36006404     99.95%     99.95% # Request fanout histogram
system.tol3bus.snoop_fanout::1                  18265      0.05%    100.00% # Request fanout histogram
system.tol3bus.snoop_fanout::overflows              0      0.00%    100.00% # Request fanout histogram
system.tol3bus.snoop_fanout::min_value              0                       # Request fanout histogram
system.tol3bus.snoop_fanout::max_value              1                       # Request fanout histogram
system.tol3bus.snoop_fanout::total           36024669                       # Request fanout histogram
system.tol3bus.reqLayer0.occupancy        18446917950                       # Layer occupancy (ticks)
system.tol3bus.reqLayer0.utilization              0.7                       # Layer utilization (%)
system.tol3bus.respLayer0.occupancy       14749642260                       # Layer occupancy (ticks)
system.tol3bus.respLayer0.utilization             0.5                       # Layer utilization (%)

---------- End Simulation Statistics   ----------
