
---------- Begin Simulation Statistics ----------
sim_seconds                                  2.754501                       # Number of seconds simulated
sim_ticks                                2754501083991                       # Number of ticks simulated
final_tick                               146231489401065                       # Number of ticks from beginning of simulation (restored from checkpoints and never reset)
sim_freq                                 1000000000000                       # Frequency of simulated ticks
host_inst_rate                                  75844                       # Simulator instruction rate (inst/s)
host_op_rate                                    75844                       # Simulator op (including micro ops) rate (op/s)
host_tick_rate                              139274379                       # Simulator tick rate (ticks/s)
host_mem_usage                                2542412                       # Number of bytes of host memory used
host_seconds                                 19777.51                       # Real time elapsed on the host
sim_insts                                  1500000005                       # Number of instructions simulated
sim_ops                                    1500000005                       # Number of ops (including micro ops) simulated
system.voltage_domain.voltage                       1                       # Voltage in Volts
system.clk_domain.clock                          1000                       # Clock period in ticks
system.mem_ctrls0.pwrStateResidencyTicks::UNDEFINED 146231489401065                       # Cumulative time (in ticks) in various power states
system.mem_ctrls0.bytes_read::cpu.inst            128                       # Number of bytes read from this memory
system.mem_ctrls0.bytes_read::cpu.data            256                       # Number of bytes read from this memory
system.mem_ctrls0.bytes_read::switch_cpus.inst        20864                       # Number of bytes read from this memory
system.mem_ctrls0.bytes_read::switch_cpus.data    440896256                       # Number of bytes read from this memory
system.mem_ctrls0.bytes_read::switch_cpus_1.inst        26624                       # Number of bytes read from this memory
system.mem_ctrls0.bytes_read::switch_cpus_1.data    172809472                       # Number of bytes read from this memory
system.mem_ctrls0.bytes_read::total         613753600                       # Number of bytes read from this memory
system.mem_ctrls0.bytes_inst_read::cpu.inst          128                       # Number of instructions bytes read from this memory
system.mem_ctrls0.bytes_inst_read::switch_cpus.inst        20864                       # Number of instructions bytes read from this memory
system.mem_ctrls0.bytes_inst_read::switch_cpus_1.inst        26624                       # Number of instructions bytes read from this memory
system.mem_ctrls0.bytes_inst_read::total        47616                       # Number of instructions bytes read from this memory
system.mem_ctrls0.bytes_written::writebacks    329342272                       # Number of bytes written to this memory
system.mem_ctrls0.bytes_written::total      329342272                       # Number of bytes written to this memory
system.mem_ctrls0.num_reads::cpu.inst               2                       # Number of read requests responded to by this memory
system.mem_ctrls0.num_reads::cpu.data               4                       # Number of read requests responded to by this memory
system.mem_ctrls0.num_reads::switch_cpus.inst          326                       # Number of read requests responded to by this memory
system.mem_ctrls0.num_reads::switch_cpus.data      6889004                       # Number of read requests responded to by this memory
system.mem_ctrls0.num_reads::switch_cpus_1.inst          416                       # Number of read requests responded to by this memory
system.mem_ctrls0.num_reads::switch_cpus_1.data      2700148                       # Number of read requests responded to by this memory
system.mem_ctrls0.num_reads::total            9589900                       # Number of read requests responded to by this memory
system.mem_ctrls0.num_writes::writebacks      5145973                       # Number of write requests responded to by this memory
system.mem_ctrls0.num_writes::total           5145973                       # Number of write requests responded to by this memory
system.mem_ctrls0.bw_read::cpu.inst                46                       # Total read bandwidth from this memory (bytes/s)
system.mem_ctrls0.bw_read::cpu.data                93                       # Total read bandwidth from this memory (bytes/s)
system.mem_ctrls0.bw_read::switch_cpus.inst         7575                       # Total read bandwidth from this memory (bytes/s)
system.mem_ctrls0.bw_read::switch_cpus.data    160063925                       # Total read bandwidth from this memory (bytes/s)
system.mem_ctrls0.bw_read::switch_cpus_1.inst         9666                       # Total read bandwidth from this memory (bytes/s)
system.mem_ctrls0.bw_read::switch_cpus_1.data     62737123                       # Total read bandwidth from this memory (bytes/s)
system.mem_ctrls0.bw_read::total            222818427                       # Total read bandwidth from this memory (bytes/s)
system.mem_ctrls0.bw_inst_read::cpu.inst           46                       # Instruction read bandwidth from this memory (bytes/s)
system.mem_ctrls0.bw_inst_read::switch_cpus.inst         7575                       # Instruction read bandwidth from this memory (bytes/s)
system.mem_ctrls0.bw_inst_read::switch_cpus_1.inst         9666                       # Instruction read bandwidth from this memory (bytes/s)
system.mem_ctrls0.bw_inst_read::total           17287                       # Instruction read bandwidth from this memory (bytes/s)
system.mem_ctrls0.bw_write::writebacks      119565127                       # Write bandwidth from this memory (bytes/s)
system.mem_ctrls0.bw_write::total           119565127                       # Write bandwidth from this memory (bytes/s)
system.mem_ctrls0.bw_total::writebacks      119565127                       # Total bandwidth to/from this memory (bytes/s)
system.mem_ctrls0.bw_total::cpu.inst               46                       # Total bandwidth to/from this memory (bytes/s)
system.mem_ctrls0.bw_total::cpu.data               93                       # Total bandwidth to/from this memory (bytes/s)
system.mem_ctrls0.bw_total::switch_cpus.inst         7575                       # Total bandwidth to/from this memory (bytes/s)
system.mem_ctrls0.bw_total::switch_cpus.data    160063925                       # Total bandwidth to/from this memory (bytes/s)
system.mem_ctrls0.bw_total::switch_cpus_1.inst         9666                       # Total bandwidth to/from this memory (bytes/s)
system.mem_ctrls0.bw_total::switch_cpus_1.data     62737123                       # Total bandwidth to/from this memory (bytes/s)
system.mem_ctrls0.bw_total::total           342383554                       # Total bandwidth to/from this memory (bytes/s)
system.mem_ctrls0.readReqs                    9589900                       # Number of read requests accepted
system.mem_ctrls0.writeReqs                   5145973                       # Number of write requests accepted
system.mem_ctrls0.readBursts                  9589900                       # Number of DRAM read bursts, including those serviced by the write queue
system.mem_ctrls0.writeBursts                 5145973                       # Number of DRAM write bursts, including those merged in the write queue
system.mem_ctrls0.bytesReadDRAM             613753024                       # Total number of bytes read from DRAM
system.mem_ctrls0.bytesReadWrQ                    576                       # Total number of bytes read from write queue
system.mem_ctrls0.bytesWritten              329340608                       # Total number of bytes written to DRAM
system.mem_ctrls0.bytesReadSys              613753600                       # Total read bytes from the system interface side
system.mem_ctrls0.bytesWrittenSys           329342272                       # Total written bytes from the system interface side
system.mem_ctrls0.servicedByWrQ                     9                       # Number of DRAM read bursts serviced by the write queue
system.mem_ctrls0.mergedWrBursts                    0                       # Number of DRAM write bursts merged with an existing one
system.mem_ctrls0.neitherReadNorWriteReqs            0                       # Number of requests that are neither read nor write
system.mem_ctrls0.perBankRdBursts::0           600922                       # Per bank write bursts
system.mem_ctrls0.perBankRdBursts::1           599169                       # Per bank write bursts
system.mem_ctrls0.perBankRdBursts::2           598501                       # Per bank write bursts
system.mem_ctrls0.perBankRdBursts::3           598458                       # Per bank write bursts
system.mem_ctrls0.perBankRdBursts::4           601238                       # Per bank write bursts
system.mem_ctrls0.perBankRdBursts::5           601011                       # Per bank write bursts
system.mem_ctrls0.perBankRdBursts::6           600137                       # Per bank write bursts
system.mem_ctrls0.perBankRdBursts::7           597540                       # Per bank write bursts
system.mem_ctrls0.perBankRdBursts::8           597499                       # Per bank write bursts
system.mem_ctrls0.perBankRdBursts::9           598954                       # Per bank write bursts
system.mem_ctrls0.perBankRdBursts::10          599721                       # Per bank write bursts
system.mem_ctrls0.perBankRdBursts::11          600672                       # Per bank write bursts
system.mem_ctrls0.perBankRdBursts::12          598625                       # Per bank write bursts
system.mem_ctrls0.perBankRdBursts::13          597593                       # Per bank write bursts
system.mem_ctrls0.perBankRdBursts::14          599296                       # Per bank write bursts
system.mem_ctrls0.perBankRdBursts::15          600555                       # Per bank write bursts
system.mem_ctrls0.perBankWrBursts::0           322938                       # Per bank write bursts
system.mem_ctrls0.perBankWrBursts::1           321871                       # Per bank write bursts
system.mem_ctrls0.perBankWrBursts::2           321503                       # Per bank write bursts
system.mem_ctrls0.perBankWrBursts::3           321525                       # Per bank write bursts
system.mem_ctrls0.perBankWrBursts::4           322301                       # Per bank write bursts
system.mem_ctrls0.perBankWrBursts::5           322083                       # Per bank write bursts
system.mem_ctrls0.perBankWrBursts::6           321752                       # Per bank write bursts
system.mem_ctrls0.perBankWrBursts::7           320269                       # Per bank write bursts
system.mem_ctrls0.perBankWrBursts::8           320033                       # Per bank write bursts
system.mem_ctrls0.perBankWrBursts::9           320621                       # Per bank write bursts
system.mem_ctrls0.perBankWrBursts::10          321897                       # Per bank write bursts
system.mem_ctrls0.perBankWrBursts::11          322394                       # Per bank write bursts
system.mem_ctrls0.perBankWrBursts::12          321624                       # Per bank write bursts
system.mem_ctrls0.perBankWrBursts::13          320790                       # Per bank write bursts
system.mem_ctrls0.perBankWrBursts::14          321863                       # Per bank write bursts
system.mem_ctrls0.perBankWrBursts::15          322483                       # Per bank write bursts
system.mem_ctrls0.numRdRetry                        0                       # Number of times read queue was full causing retry
system.mem_ctrls0.numWrRetry                        0                       # Number of times write queue was full causing retry
system.mem_ctrls0.totGap                 2754500705037                       # Total gap between requests
system.mem_ctrls0.readPktSize::0                    0                       # Read request sizes (log2)
system.mem_ctrls0.readPktSize::1                    0                       # Read request sizes (log2)
system.mem_ctrls0.readPktSize::2                    0                       # Read request sizes (log2)
system.mem_ctrls0.readPktSize::3                    0                       # Read request sizes (log2)
system.mem_ctrls0.readPktSize::4                    0                       # Read request sizes (log2)
system.mem_ctrls0.readPktSize::5                    0                       # Read request sizes (log2)
system.mem_ctrls0.readPktSize::6              9589900                       # Read request sizes (log2)
system.mem_ctrls0.writePktSize::0                   0                       # Write request sizes (log2)
system.mem_ctrls0.writePktSize::1                   0                       # Write request sizes (log2)
system.mem_ctrls0.writePktSize::2                   0                       # Write request sizes (log2)
system.mem_ctrls0.writePktSize::3                   0                       # Write request sizes (log2)
system.mem_ctrls0.writePktSize::4                   0                       # Write request sizes (log2)
system.mem_ctrls0.writePktSize::5                   0                       # Write request sizes (log2)
system.mem_ctrls0.writePktSize::6             5145973                       # Write request sizes (log2)
system.mem_ctrls0.rdQLenPdf::0                8669287                       # What read queue length does an incoming req see
system.mem_ctrls0.rdQLenPdf::1                 670004                       # What read queue length does an incoming req see
system.mem_ctrls0.rdQLenPdf::2                 216634                       # What read queue length does an incoming req see
system.mem_ctrls0.rdQLenPdf::3                  33964                       # What read queue length does an incoming req see
system.mem_ctrls0.rdQLenPdf::4                      2                       # What read queue length does an incoming req see
system.mem_ctrls0.rdQLenPdf::5                      0                       # What read queue length does an incoming req see
system.mem_ctrls0.rdQLenPdf::6                      0                       # What read queue length does an incoming req see
system.mem_ctrls0.rdQLenPdf::7                      0                       # What read queue length does an incoming req see
system.mem_ctrls0.rdQLenPdf::8                      0                       # What read queue length does an incoming req see
system.mem_ctrls0.rdQLenPdf::9                      0                       # What read queue length does an incoming req see
system.mem_ctrls0.rdQLenPdf::10                     0                       # What read queue length does an incoming req see
system.mem_ctrls0.rdQLenPdf::11                     0                       # What read queue length does an incoming req see
system.mem_ctrls0.rdQLenPdf::12                     0                       # What read queue length does an incoming req see
system.mem_ctrls0.rdQLenPdf::13                     0                       # What read queue length does an incoming req see
system.mem_ctrls0.rdQLenPdf::14                     0                       # What read queue length does an incoming req see
system.mem_ctrls0.rdQLenPdf::15                     0                       # What read queue length does an incoming req see
system.mem_ctrls0.rdQLenPdf::16                     0                       # What read queue length does an incoming req see
system.mem_ctrls0.rdQLenPdf::17                     0                       # What read queue length does an incoming req see
system.mem_ctrls0.rdQLenPdf::18                     0                       # What read queue length does an incoming req see
system.mem_ctrls0.rdQLenPdf::19                     0                       # What read queue length does an incoming req see
system.mem_ctrls0.rdQLenPdf::20                     0                       # What read queue length does an incoming req see
system.mem_ctrls0.rdQLenPdf::21                     0                       # What read queue length does an incoming req see
system.mem_ctrls0.rdQLenPdf::22                     0                       # What read queue length does an incoming req see
system.mem_ctrls0.rdQLenPdf::23                     0                       # What read queue length does an incoming req see
system.mem_ctrls0.rdQLenPdf::24                     0                       # What read queue length does an incoming req see
system.mem_ctrls0.rdQLenPdf::25                     0                       # What read queue length does an incoming req see
system.mem_ctrls0.rdQLenPdf::26                     0                       # What read queue length does an incoming req see
system.mem_ctrls0.rdQLenPdf::27                     0                       # What read queue length does an incoming req see
system.mem_ctrls0.rdQLenPdf::28                     0                       # What read queue length does an incoming req see
system.mem_ctrls0.rdQLenPdf::29                     0                       # What read queue length does an incoming req see
system.mem_ctrls0.rdQLenPdf::30                     0                       # What read queue length does an incoming req see
system.mem_ctrls0.rdQLenPdf::31                     0                       # What read queue length does an incoming req see
system.mem_ctrls0.wrQLenPdf::0                      2                       # What write queue length does an incoming req see
system.mem_ctrls0.wrQLenPdf::1                      2                       # What write queue length does an incoming req see
system.mem_ctrls0.wrQLenPdf::2                      2                       # What write queue length does an incoming req see
system.mem_ctrls0.wrQLenPdf::3                      2                       # What write queue length does an incoming req see
system.mem_ctrls0.wrQLenPdf::4                      2                       # What write queue length does an incoming req see
system.mem_ctrls0.wrQLenPdf::5                      2                       # What write queue length does an incoming req see
system.mem_ctrls0.wrQLenPdf::6                      2                       # What write queue length does an incoming req see
system.mem_ctrls0.wrQLenPdf::7                      2                       # What write queue length does an incoming req see
system.mem_ctrls0.wrQLenPdf::8                      2                       # What write queue length does an incoming req see
system.mem_ctrls0.wrQLenPdf::9                      2                       # What write queue length does an incoming req see
system.mem_ctrls0.wrQLenPdf::10                     2                       # What write queue length does an incoming req see
system.mem_ctrls0.wrQLenPdf::11                     2                       # What write queue length does an incoming req see
system.mem_ctrls0.wrQLenPdf::12                     2                       # What write queue length does an incoming req see
system.mem_ctrls0.wrQLenPdf::13                     2                       # What write queue length does an incoming req see
system.mem_ctrls0.wrQLenPdf::14                     2                       # What write queue length does an incoming req see
system.mem_ctrls0.wrQLenPdf::15                152846                       # What write queue length does an incoming req see
system.mem_ctrls0.wrQLenPdf::16                161477                       # What write queue length does an incoming req see
system.mem_ctrls0.wrQLenPdf::17                283125                       # What write queue length does an incoming req see
system.mem_ctrls0.wrQLenPdf::18                299704                       # What write queue length does an incoming req see
system.mem_ctrls0.wrQLenPdf::19                303056                       # What write queue length does an incoming req see
system.mem_ctrls0.wrQLenPdf::20                303003                       # What write queue length does an incoming req see
system.mem_ctrls0.wrQLenPdf::21                303034                       # What write queue length does an incoming req see
system.mem_ctrls0.wrQLenPdf::22                303008                       # What write queue length does an incoming req see
system.mem_ctrls0.wrQLenPdf::23                303433                       # What write queue length does an incoming req see
system.mem_ctrls0.wrQLenPdf::24                303398                       # What write queue length does an incoming req see
system.mem_ctrls0.wrQLenPdf::25                303011                       # What write queue length does an incoming req see
system.mem_ctrls0.wrQLenPdf::26                302845                       # What write queue length does an incoming req see
system.mem_ctrls0.wrQLenPdf::27                302949                       # What write queue length does an incoming req see
system.mem_ctrls0.wrQLenPdf::28                303288                       # What write queue length does an incoming req see
system.mem_ctrls0.wrQLenPdf::29                304538                       # What write queue length does an incoming req see
system.mem_ctrls0.wrQLenPdf::30                308854                       # What write queue length does an incoming req see
system.mem_ctrls0.wrQLenPdf::31                302164                       # What write queue length does an incoming req see
system.mem_ctrls0.wrQLenPdf::32                301206                       # What write queue length does an incoming req see
system.mem_ctrls0.wrQLenPdf::33                   555                       # What write queue length does an incoming req see
system.mem_ctrls0.wrQLenPdf::34                   166                       # What write queue length does an incoming req see
system.mem_ctrls0.wrQLenPdf::35                    68                       # What write queue length does an incoming req see
system.mem_ctrls0.wrQLenPdf::36                    46                       # What write queue length does an incoming req see
system.mem_ctrls0.wrQLenPdf::37                    33                       # What write queue length does an incoming req see
system.mem_ctrls0.wrQLenPdf::38                    24                       # What write queue length does an incoming req see
system.mem_ctrls0.wrQLenPdf::39                    19                       # What write queue length does an incoming req see
system.mem_ctrls0.wrQLenPdf::40                    18                       # What write queue length does an incoming req see
system.mem_ctrls0.wrQLenPdf::41                     9                       # What write queue length does an incoming req see
system.mem_ctrls0.wrQLenPdf::42                     7                       # What write queue length does an incoming req see
system.mem_ctrls0.wrQLenPdf::43                     8                       # What write queue length does an incoming req see
system.mem_ctrls0.wrQLenPdf::44                     4                       # What write queue length does an incoming req see
system.mem_ctrls0.wrQLenPdf::45                     5                       # What write queue length does an incoming req see
system.mem_ctrls0.wrQLenPdf::46                     4                       # What write queue length does an incoming req see
system.mem_ctrls0.wrQLenPdf::47                     4                       # What write queue length does an incoming req see
system.mem_ctrls0.wrQLenPdf::48                     5                       # What write queue length does an incoming req see
system.mem_ctrls0.wrQLenPdf::49                     7                       # What write queue length does an incoming req see
system.mem_ctrls0.wrQLenPdf::50                     2                       # What write queue length does an incoming req see
system.mem_ctrls0.wrQLenPdf::51                     1                       # What write queue length does an incoming req see
system.mem_ctrls0.wrQLenPdf::52                     4                       # What write queue length does an incoming req see
system.mem_ctrls0.wrQLenPdf::53                     6                       # What write queue length does an incoming req see
system.mem_ctrls0.wrQLenPdf::54                     6                       # What write queue length does an incoming req see
system.mem_ctrls0.wrQLenPdf::55                     3                       # What write queue length does an incoming req see
system.mem_ctrls0.wrQLenPdf::56                     0                       # What write queue length does an incoming req see
system.mem_ctrls0.wrQLenPdf::57                     0                       # What write queue length does an incoming req see
system.mem_ctrls0.wrQLenPdf::58                     0                       # What write queue length does an incoming req see
system.mem_ctrls0.wrQLenPdf::59                     0                       # What write queue length does an incoming req see
system.mem_ctrls0.wrQLenPdf::60                     0                       # What write queue length does an incoming req see
system.mem_ctrls0.wrQLenPdf::61                     0                       # What write queue length does an incoming req see
system.mem_ctrls0.wrQLenPdf::62                     0                       # What write queue length does an incoming req see
system.mem_ctrls0.wrQLenPdf::63                     0                       # What write queue length does an incoming req see
system.mem_ctrls0.bytesPerActivate::samples     10186899                       # Bytes accessed per row activation
system.mem_ctrls0.bytesPerActivate::mean    92.579013                       # Bytes accessed per row activation
system.mem_ctrls0.bytesPerActivate::gmean    82.132245                       # Bytes accessed per row activation
system.mem_ctrls0.bytesPerActivate::stdev    59.255247                       # Bytes accessed per row activation
system.mem_ctrls0.bytesPerActivate::0-127      7376978     72.42%     72.42% # Bytes accessed per row activation
system.mem_ctrls0.bytesPerActivate::128-255      2329387     22.87%     95.28% # Bytes accessed per row activation
system.mem_ctrls0.bytesPerActivate::256-383       426595      4.19%     99.47% # Bytes accessed per row activation
system.mem_ctrls0.bytesPerActivate::384-511        40413      0.40%     99.87% # Bytes accessed per row activation
system.mem_ctrls0.bytesPerActivate::512-639         6583      0.06%     99.93% # Bytes accessed per row activation
system.mem_ctrls0.bytesPerActivate::640-767         2196      0.02%     99.95% # Bytes accessed per row activation
system.mem_ctrls0.bytesPerActivate::768-895         1395      0.01%     99.97% # Bytes accessed per row activation
system.mem_ctrls0.bytesPerActivate::896-1023          717      0.01%     99.97% # Bytes accessed per row activation
system.mem_ctrls0.bytesPerActivate::1024-1151         2635      0.03%    100.00% # Bytes accessed per row activation
system.mem_ctrls0.bytesPerActivate::total     10186899                       # Bytes accessed per row activation
system.mem_ctrls0.rdPerTurnAround::samples       300578                       # Reads before turning the bus around for writes
system.mem_ctrls0.rdPerTurnAround::mean     31.818550                       # Reads before turning the bus around for writes
system.mem_ctrls0.rdPerTurnAround::stdev    69.696141                       # Reads before turning the bus around for writes
system.mem_ctrls0.rdPerTurnAround::0-1023       300551     99.99%     99.99% # Reads before turning the bus around for writes
system.mem_ctrls0.rdPerTurnAround::1024-2047           17      0.01%    100.00% # Reads before turning the bus around for writes
system.mem_ctrls0.rdPerTurnAround::2048-3071            4      0.00%    100.00% # Reads before turning the bus around for writes
system.mem_ctrls0.rdPerTurnAround::4096-5119            1      0.00%    100.00% # Reads before turning the bus around for writes
system.mem_ctrls0.rdPerTurnAround::5120-6143            2      0.00%    100.00% # Reads before turning the bus around for writes
system.mem_ctrls0.rdPerTurnAround::6144-7167            1      0.00%    100.00% # Reads before turning the bus around for writes
system.mem_ctrls0.rdPerTurnAround::21504-22527            1      0.00%    100.00% # Reads before turning the bus around for writes
system.mem_ctrls0.rdPerTurnAround::27648-28671            1      0.00%    100.00% # Reads before turning the bus around for writes
system.mem_ctrls0.rdPerTurnAround::total       300578                       # Reads before turning the bus around for writes
system.mem_ctrls0.wrPerTurnAround::samples       300578                       # Writes before turning the bus around for reads
system.mem_ctrls0.wrPerTurnAround::mean     17.120172                       # Writes before turning the bus around for reads
system.mem_ctrls0.wrPerTurnAround::gmean    17.082405                       # Writes before turning the bus around for reads
system.mem_ctrls0.wrPerTurnAround::stdev     1.215683                       # Writes before turning the bus around for reads
system.mem_ctrls0.wrPerTurnAround::16-17       146241     48.65%     48.65% # Writes before turning the bus around for reads
system.mem_ctrls0.wrPerTurnAround::18-19       151990     50.57%     99.22% # Writes before turning the bus around for reads
system.mem_ctrls0.wrPerTurnAround::20-21         2184      0.73%     99.95% # Writes before turning the bus around for reads
system.mem_ctrls0.wrPerTurnAround::22-23           70      0.02%     99.97% # Writes before turning the bus around for reads
system.mem_ctrls0.wrPerTurnAround::24-25           23      0.01%     99.98% # Writes before turning the bus around for reads
system.mem_ctrls0.wrPerTurnAround::26-27           13      0.00%     99.98% # Writes before turning the bus around for reads
system.mem_ctrls0.wrPerTurnAround::28-29            7      0.00%     99.98% # Writes before turning the bus around for reads
system.mem_ctrls0.wrPerTurnAround::30-31            9      0.00%     99.99% # Writes before turning the bus around for reads
system.mem_ctrls0.wrPerTurnAround::32-33            6      0.00%     99.99% # Writes before turning the bus around for reads
system.mem_ctrls0.wrPerTurnAround::34-35            6      0.00%     99.99% # Writes before turning the bus around for reads
system.mem_ctrls0.wrPerTurnAround::36-37            4      0.00%     99.99% # Writes before turning the bus around for reads
system.mem_ctrls0.wrPerTurnAround::38-39            1      0.00%     99.99% # Writes before turning the bus around for reads
system.mem_ctrls0.wrPerTurnAround::40-41            1      0.00%     99.99% # Writes before turning the bus around for reads
system.mem_ctrls0.wrPerTurnAround::42-43            2      0.00%     99.99% # Writes before turning the bus around for reads
system.mem_ctrls0.wrPerTurnAround::46-47            1      0.00%     99.99% # Writes before turning the bus around for reads
system.mem_ctrls0.wrPerTurnAround::48-49            2      0.00%     99.99% # Writes before turning the bus around for reads
system.mem_ctrls0.wrPerTurnAround::52-53            4      0.00%    100.00% # Writes before turning the bus around for reads
system.mem_ctrls0.wrPerTurnAround::56-57            1      0.00%    100.00% # Writes before turning the bus around for reads
system.mem_ctrls0.wrPerTurnAround::58-59            1      0.00%    100.00% # Writes before turning the bus around for reads
system.mem_ctrls0.wrPerTurnAround::62-63            1      0.00%    100.00% # Writes before turning the bus around for reads
system.mem_ctrls0.wrPerTurnAround::70-71            1      0.00%    100.00% # Writes before turning the bus around for reads
system.mem_ctrls0.wrPerTurnAround::76-77            1      0.00%    100.00% # Writes before turning the bus around for reads
system.mem_ctrls0.wrPerTurnAround::82-83            2      0.00%    100.00% # Writes before turning the bus around for reads
system.mem_ctrls0.wrPerTurnAround::84-85            1      0.00%    100.00% # Writes before turning the bus around for reads
system.mem_ctrls0.wrPerTurnAround::90-91            1      0.00%    100.00% # Writes before turning the bus around for reads
system.mem_ctrls0.wrPerTurnAround::94-95            1      0.00%    100.00% # Writes before turning the bus around for reads
system.mem_ctrls0.wrPerTurnAround::96-97            1      0.00%    100.00% # Writes before turning the bus around for reads
system.mem_ctrls0.wrPerTurnAround::100-101            2      0.00%    100.00% # Writes before turning the bus around for reads
system.mem_ctrls0.wrPerTurnAround::102-103            1      0.00%    100.00% # Writes before turning the bus around for reads
system.mem_ctrls0.wrPerTurnAround::total       300578                       # Writes before turning the bus around for reads
system.mem_ctrls0.totQLat                265309812837                       # Total ticks spent queuing
system.mem_ctrls0.totMemAccLat           445120269087                       # Total ticks spent from burst creation until serviced by the DRAM
system.mem_ctrls0.totBusLat               47949455000                       # Total ticks spent in databus transfers
system.mem_ctrls0.avgQLat                    27665.57                       # Average queueing delay per DRAM burst
system.mem_ctrls0.avgBusLat                   5000.00                       # Average bus latency per DRAM burst
system.mem_ctrls0.avgMemAccLat               46415.57                       # Average memory access latency per DRAM burst
system.mem_ctrls0.avgRdBW                      222.82                       # Average DRAM read bandwidth in MiByte/s
system.mem_ctrls0.avgWrBW                      119.56                       # Average achieved write bandwidth in MiByte/s
system.mem_ctrls0.avgRdBWSys                   222.82                       # Average system read bandwidth in MiByte/s
system.mem_ctrls0.avgWrBWSys                   119.57                       # Average system write bandwidth in MiByte/s
system.mem_ctrls0.peakBW                     12800.00                       # Theoretical peak bandwidth in MiByte/s
system.mem_ctrls0.busUtil                        2.67                       # Data bus utilization in percentage
system.mem_ctrls0.busUtilRead                    1.74                       # Data bus utilization in percentage for reads
system.mem_ctrls0.busUtilWrite                   0.93                       # Data bus utilization in percentage for writes
system.mem_ctrls0.avgRdQLen                      1.06                       # Average read queue length when enqueuing
system.mem_ctrls0.avgWrQLen                     24.83                       # Average write queue length when enqueuing
system.mem_ctrls0.readRowHits                 3497403                       # Number of row buffer hits during reads
system.mem_ctrls0.writeRowHits                1051527                       # Number of row buffer hits during writes
system.mem_ctrls0.readRowHitRate                36.47                       # Row buffer hit rate for reads
system.mem_ctrls0.writeRowHitRate               20.43                       # Row buffer hit rate for writes
system.mem_ctrls0.avgGap                    186924.84                       # Average gap between requests
system.mem_ctrls0.pageHitRate                   30.87                       # Row buffer hit rate, read and write combined
system.mem_ctrls0_0.actEnergy             36371845440                       # Energy for activate commands per rank (pJ)
system.mem_ctrls0_0.preEnergy             19332082935                       # Energy for precharge commands per rank (pJ)
system.mem_ctrls0_0.readEnergy            34250408640                       # Energy for read commands per rank (pJ)
system.mem_ctrls0_0.writeEnergy           13437543240                       # Energy for write commands per rank (pJ)
system.mem_ctrls0_0.refreshEnergy        216894163200.000061                       # Energy for refresh commands per rank (pJ)
system.mem_ctrls0_0.actBackEnergy        213771628080                       # Energy for active background per rank (pJ)
system.mem_ctrls0_0.preBackEnergy          5700981600                       # Energy for precharge background per rank (pJ)
system.mem_ctrls0_0.actPowerDownEnergy   912970240320                       # Energy for active power-down per rank (pJ)
system.mem_ctrls0_0.prePowerDownEnergy    84237473280                       # Energy for precharge power-down per rank (pJ)
system.mem_ctrls0_0.selfRefreshEnergy     15088245420                       # Energy for self refresh per rank (pJ)
system.mem_ctrls0_0.totalEnergy          1552080288255                       # Total energy per rank (pJ)
system.mem_ctrls0_0.averagePower           563.470565                       # Core power per rank (mW)
system.mem_ctrls0_0.totalIdleTime        2270814843145                       # Total Idle time Per DRAM Rank
system.mem_ctrls0_0.memoryStateTime::IDLE   3606105732                       # Time in different power states
system.mem_ctrls0_0.memoryStateTime::REF  91786684000                       # Time in different power states
system.mem_ctrls0_0.memoryStateTime::SREF  49304120949                       # Time in different power states
system.mem_ctrls0_0.memoryStateTime::PRE_PDN 219370488349                       # Time in different power states
system.mem_ctrls0_0.memoryStateTime::ACT 388293125645                       # Time in different power states
system.mem_ctrls0_0.memoryStateTime::ACT_PDN 2002140559316                       # Time in different power states
system.mem_ctrls0_1.actEnergy             36362677680                       # Energy for activate commands per rank (pJ)
system.mem_ctrls0_1.preEnergy             19327198770                       # Energy for precharge commands per rank (pJ)
system.mem_ctrls0_1.readEnergy            34221413100                       # Energy for read commands per rank (pJ)
system.mem_ctrls0_1.writeEnergy           13424300100                       # Energy for write commands per rank (pJ)
system.mem_ctrls0_1.refreshEnergy        216577623600.000061                       # Energy for refresh commands per rank (pJ)
system.mem_ctrls0_1.actBackEnergy        212944938840                       # Energy for active background per rank (pJ)
system.mem_ctrls0_1.preBackEnergy          5684541120                       # Energy for precharge background per rank (pJ)
system.mem_ctrls0_1.actPowerDownEnergy   914404733670                       # Energy for active power-down per rank (pJ)
system.mem_ctrls0_1.prePowerDownEnergy    82938679680                       # Energy for precharge power-down per rank (pJ)
system.mem_ctrls0_1.selfRefreshEnergy     15444374325                       # Energy for self refresh per rank (pJ)
system.mem_ctrls0_1.totalEnergy          1551354528645                       # Total energy per rank (pJ)
system.mem_ctrls0_1.averagePower           563.207084                       # Core power per rank (mW)
system.mem_ctrls0_1.totalIdleTime        2272677053004                       # Total Idle time Per DRAM Rank
system.mem_ctrls0_1.memoryStateTime::IDLE   3539833298                       # Time in different power states
system.mem_ctrls0_1.memoryStateTime::REF  91651056000                       # Time in different power states
system.mem_ctrls0_1.memoryStateTime::SREF  51399888558                       # Time in different power states
system.mem_ctrls0_1.memoryStateTime::PRE_PDN 215984992378                       # Time in different power states
system.mem_ctrls0_1.memoryStateTime::ACT 386632681452                       # Time in different power states
system.mem_ctrls0_1.memoryStateTime::ACT_PDN 2005292632305                       # Time in different power states
system.mem_ctrls1.pwrStateResidencyTicks::UNDEFINED 146231489401065                       # Cumulative time (in ticks) in various power states
system.mem_ctrls1.bytes_read::cpu.inst             64                       # Number of bytes read from this memory
system.mem_ctrls1.bytes_read::cpu.data             64                       # Number of bytes read from this memory
system.mem_ctrls1.bytes_read::switch_cpus.inst        20288                       # Number of bytes read from this memory
system.mem_ctrls1.bytes_read::switch_cpus.data    440852160                       # Number of bytes read from this memory
system.mem_ctrls1.bytes_read::switch_cpus_1.inst        26496                       # Number of bytes read from this memory
system.mem_ctrls1.bytes_read::switch_cpus_1.data    172793344                       # Number of bytes read from this memory
system.mem_ctrls1.bytes_read::total         613692416                       # Number of bytes read from this memory
system.mem_ctrls1.bytes_inst_read::cpu.inst           64                       # Number of instructions bytes read from this memory
system.mem_ctrls1.bytes_inst_read::switch_cpus.inst        20288                       # Number of instructions bytes read from this memory
system.mem_ctrls1.bytes_inst_read::switch_cpus_1.inst        26496                       # Number of instructions bytes read from this memory
system.mem_ctrls1.bytes_inst_read::total        46848                       # Number of instructions bytes read from this memory
system.mem_ctrls1.bytes_written::writebacks    329349824                       # Number of bytes written to this memory
system.mem_ctrls1.bytes_written::total      329349824                       # Number of bytes written to this memory
system.mem_ctrls1.num_reads::cpu.inst               1                       # Number of read requests responded to by this memory
system.mem_ctrls1.num_reads::cpu.data               1                       # Number of read requests responded to by this memory
system.mem_ctrls1.num_reads::switch_cpus.inst          317                       # Number of read requests responded to by this memory
system.mem_ctrls1.num_reads::switch_cpus.data      6888315                       # Number of read requests responded to by this memory
system.mem_ctrls1.num_reads::switch_cpus_1.inst          414                       # Number of read requests responded to by this memory
system.mem_ctrls1.num_reads::switch_cpus_1.data      2699896                       # Number of read requests responded to by this memory
system.mem_ctrls1.num_reads::total            9588944                       # Number of read requests responded to by this memory
system.mem_ctrls1.num_writes::writebacks      5146091                       # Number of write requests responded to by this memory
system.mem_ctrls1.num_writes::total           5146091                       # Number of write requests responded to by this memory
system.mem_ctrls1.bw_read::cpu.inst                23                       # Total read bandwidth from this memory (bytes/s)
system.mem_ctrls1.bw_read::cpu.data                23                       # Total read bandwidth from this memory (bytes/s)
system.mem_ctrls1.bw_read::switch_cpus.inst         7365                       # Total read bandwidth from this memory (bytes/s)
system.mem_ctrls1.bw_read::switch_cpus.data    160047917                       # Total read bandwidth from this memory (bytes/s)
system.mem_ctrls1.bw_read::switch_cpus_1.inst         9619                       # Total read bandwidth from this memory (bytes/s)
system.mem_ctrls1.bw_read::switch_cpus_1.data     62731267                       # Total read bandwidth from this memory (bytes/s)
system.mem_ctrls1.bw_read::total            222796215                       # Total read bandwidth from this memory (bytes/s)
system.mem_ctrls1.bw_inst_read::cpu.inst           23                       # Instruction read bandwidth from this memory (bytes/s)
system.mem_ctrls1.bw_inst_read::switch_cpus.inst         7365                       # Instruction read bandwidth from this memory (bytes/s)
system.mem_ctrls1.bw_inst_read::switch_cpus_1.inst         9619                       # Instruction read bandwidth from this memory (bytes/s)
system.mem_ctrls1.bw_inst_read::total           17008                       # Instruction read bandwidth from this memory (bytes/s)
system.mem_ctrls1.bw_write::writebacks      119567869                       # Write bandwidth from this memory (bytes/s)
system.mem_ctrls1.bw_write::total           119567869                       # Write bandwidth from this memory (bytes/s)
system.mem_ctrls1.bw_total::writebacks      119567869                       # Total bandwidth to/from this memory (bytes/s)
system.mem_ctrls1.bw_total::cpu.inst               23                       # Total bandwidth to/from this memory (bytes/s)
system.mem_ctrls1.bw_total::cpu.data               23                       # Total bandwidth to/from this memory (bytes/s)
system.mem_ctrls1.bw_total::switch_cpus.inst         7365                       # Total bandwidth to/from this memory (bytes/s)
system.mem_ctrls1.bw_total::switch_cpus.data    160047917                       # Total bandwidth to/from this memory (bytes/s)
system.mem_ctrls1.bw_total::switch_cpus_1.inst         9619                       # Total bandwidth to/from this memory (bytes/s)
system.mem_ctrls1.bw_total::switch_cpus_1.data     62731267                       # Total bandwidth to/from this memory (bytes/s)
system.mem_ctrls1.bw_total::total           342364084                       # Total bandwidth to/from this memory (bytes/s)
system.mem_ctrls1.readReqs                    9588944                       # Number of read requests accepted
system.mem_ctrls1.writeReqs                   5146091                       # Number of write requests accepted
system.mem_ctrls1.readBursts                  9588944                       # Number of DRAM read bursts, including those serviced by the write queue
system.mem_ctrls1.writeBursts                 5146091                       # Number of DRAM write bursts, including those merged in the write queue
system.mem_ctrls1.bytesReadDRAM             613691456                       # Total number of bytes read from DRAM
system.mem_ctrls1.bytesReadWrQ                    960                       # Total number of bytes read from write queue
system.mem_ctrls1.bytesWritten              329348224                       # Total number of bytes written to DRAM
system.mem_ctrls1.bytesReadSys              613692416                       # Total read bytes from the system interface side
system.mem_ctrls1.bytesWrittenSys           329349824                       # Total written bytes from the system interface side
system.mem_ctrls1.servicedByWrQ                    15                       # Number of DRAM read bursts serviced by the write queue
system.mem_ctrls1.mergedWrBursts                    0                       # Number of DRAM write bursts merged with an existing one
system.mem_ctrls1.neitherReadNorWriteReqs            0                       # Number of requests that are neither read nor write
system.mem_ctrls1.perBankRdBursts::0           600440                       # Per bank write bursts
system.mem_ctrls1.perBankRdBursts::1           599792                       # Per bank write bursts
system.mem_ctrls1.perBankRdBursts::2           597298                       # Per bank write bursts
system.mem_ctrls1.perBankRdBursts::3           599199                       # Per bank write bursts
system.mem_ctrls1.perBankRdBursts::4           601138                       # Per bank write bursts
system.mem_ctrls1.perBankRdBursts::5           601087                       # Per bank write bursts
system.mem_ctrls1.perBankRdBursts::6           600120                       # Per bank write bursts
system.mem_ctrls1.perBankRdBursts::7           597598                       # Per bank write bursts
system.mem_ctrls1.perBankRdBursts::8           597990                       # Per bank write bursts
system.mem_ctrls1.perBankRdBursts::9           598318                       # Per bank write bursts
system.mem_ctrls1.perBankRdBursts::10          599825                       # Per bank write bursts
system.mem_ctrls1.perBankRdBursts::11          600149                       # Per bank write bursts
system.mem_ctrls1.perBankRdBursts::12          598571                       # Per bank write bursts
system.mem_ctrls1.perBankRdBursts::13          597695                       # Per bank write bursts
system.mem_ctrls1.perBankRdBursts::14          598997                       # Per bank write bursts
system.mem_ctrls1.perBankRdBursts::15          600712                       # Per bank write bursts
system.mem_ctrls1.perBankWrBursts::0           322806                       # Per bank write bursts
system.mem_ctrls1.perBankWrBursts::1           322026                       # Per bank write bursts
system.mem_ctrls1.perBankWrBursts::2           321316                       # Per bank write bursts
system.mem_ctrls1.perBankWrBursts::3           321635                       # Per bank write bursts
system.mem_ctrls1.perBankWrBursts::4           322282                       # Per bank write bursts
system.mem_ctrls1.perBankWrBursts::5           322117                       # Per bank write bursts
system.mem_ctrls1.perBankWrBursts::6           321816                       # Per bank write bursts
system.mem_ctrls1.perBankWrBursts::7           320139                       # Per bank write bursts
system.mem_ctrls1.perBankWrBursts::8           320241                       # Per bank write bursts
system.mem_ctrls1.perBankWrBursts::9           320458                       # Per bank write bursts
system.mem_ctrls1.perBankWrBursts::10          321957                       # Per bank write bursts
system.mem_ctrls1.perBankWrBursts::11          322420                       # Per bank write bursts
system.mem_ctrls1.perBankWrBursts::12          321647                       # Per bank write bursts
system.mem_ctrls1.perBankWrBursts::13          320742                       # Per bank write bursts
system.mem_ctrls1.perBankWrBursts::14          321829                       # Per bank write bursts
system.mem_ctrls1.perBankWrBursts::15          322635                       # Per bank write bursts
system.mem_ctrls1.numRdRetry                        0                       # Number of times read queue was full causing retry
system.mem_ctrls1.numWrRetry                        0                       # Number of times write queue was full causing retry
system.mem_ctrls1.totGap                 2754499897179                       # Total gap between requests
system.mem_ctrls1.readPktSize::0                    0                       # Read request sizes (log2)
system.mem_ctrls1.readPktSize::1                    0                       # Read request sizes (log2)
system.mem_ctrls1.readPktSize::2                    0                       # Read request sizes (log2)
system.mem_ctrls1.readPktSize::3                    0                       # Read request sizes (log2)
system.mem_ctrls1.readPktSize::4                    0                       # Read request sizes (log2)
system.mem_ctrls1.readPktSize::5                    0                       # Read request sizes (log2)
system.mem_ctrls1.readPktSize::6              9588944                       # Read request sizes (log2)
system.mem_ctrls1.writePktSize::0                   0                       # Write request sizes (log2)
system.mem_ctrls1.writePktSize::1                   0                       # Write request sizes (log2)
system.mem_ctrls1.writePktSize::2                   0                       # Write request sizes (log2)
system.mem_ctrls1.writePktSize::3                   0                       # Write request sizes (log2)
system.mem_ctrls1.writePktSize::4                   0                       # Write request sizes (log2)
system.mem_ctrls1.writePktSize::5                   0                       # Write request sizes (log2)
system.mem_ctrls1.writePktSize::6             5146091                       # Write request sizes (log2)
system.mem_ctrls1.rdQLenPdf::0                8668640                       # What read queue length does an incoming req see
system.mem_ctrls1.rdQLenPdf::1                 669690                       # What read queue length does an incoming req see
system.mem_ctrls1.rdQLenPdf::2                 216480                       # What read queue length does an incoming req see
system.mem_ctrls1.rdQLenPdf::3                  34118                       # What read queue length does an incoming req see
system.mem_ctrls1.rdQLenPdf::4                      1                       # What read queue length does an incoming req see
system.mem_ctrls1.rdQLenPdf::5                      0                       # What read queue length does an incoming req see
system.mem_ctrls1.rdQLenPdf::6                      0                       # What read queue length does an incoming req see
system.mem_ctrls1.rdQLenPdf::7                      0                       # What read queue length does an incoming req see
system.mem_ctrls1.rdQLenPdf::8                      0                       # What read queue length does an incoming req see
system.mem_ctrls1.rdQLenPdf::9                      0                       # What read queue length does an incoming req see
system.mem_ctrls1.rdQLenPdf::10                     0                       # What read queue length does an incoming req see
system.mem_ctrls1.rdQLenPdf::11                     0                       # What read queue length does an incoming req see
system.mem_ctrls1.rdQLenPdf::12                     0                       # What read queue length does an incoming req see
system.mem_ctrls1.rdQLenPdf::13                     0                       # What read queue length does an incoming req see
system.mem_ctrls1.rdQLenPdf::14                     0                       # What read queue length does an incoming req see
system.mem_ctrls1.rdQLenPdf::15                     0                       # What read queue length does an incoming req see
system.mem_ctrls1.rdQLenPdf::16                     0                       # What read queue length does an incoming req see
system.mem_ctrls1.rdQLenPdf::17                     0                       # What read queue length does an incoming req see
system.mem_ctrls1.rdQLenPdf::18                     0                       # What read queue length does an incoming req see
system.mem_ctrls1.rdQLenPdf::19                     0                       # What read queue length does an incoming req see
system.mem_ctrls1.rdQLenPdf::20                     0                       # What read queue length does an incoming req see
system.mem_ctrls1.rdQLenPdf::21                     0                       # What read queue length does an incoming req see
system.mem_ctrls1.rdQLenPdf::22                     0                       # What read queue length does an incoming req see
system.mem_ctrls1.rdQLenPdf::23                     0                       # What read queue length does an incoming req see
system.mem_ctrls1.rdQLenPdf::24                     0                       # What read queue length does an incoming req see
system.mem_ctrls1.rdQLenPdf::25                     0                       # What read queue length does an incoming req see
system.mem_ctrls1.rdQLenPdf::26                     0                       # What read queue length does an incoming req see
system.mem_ctrls1.rdQLenPdf::27                     0                       # What read queue length does an incoming req see
system.mem_ctrls1.rdQLenPdf::28                     0                       # What read queue length does an incoming req see
system.mem_ctrls1.rdQLenPdf::29                     0                       # What read queue length does an incoming req see
system.mem_ctrls1.rdQLenPdf::30                     0                       # What read queue length does an incoming req see
system.mem_ctrls1.rdQLenPdf::31                     0                       # What read queue length does an incoming req see
system.mem_ctrls1.wrQLenPdf::0                      2                       # What write queue length does an incoming req see
system.mem_ctrls1.wrQLenPdf::1                      2                       # What write queue length does an incoming req see
system.mem_ctrls1.wrQLenPdf::2                      2                       # What write queue length does an incoming req see
system.mem_ctrls1.wrQLenPdf::3                      2                       # What write queue length does an incoming req see
system.mem_ctrls1.wrQLenPdf::4                      2                       # What write queue length does an incoming req see
system.mem_ctrls1.wrQLenPdf::5                      2                       # What write queue length does an incoming req see
system.mem_ctrls1.wrQLenPdf::6                      2                       # What write queue length does an incoming req see
system.mem_ctrls1.wrQLenPdf::7                      2                       # What write queue length does an incoming req see
system.mem_ctrls1.wrQLenPdf::8                      2                       # What write queue length does an incoming req see
system.mem_ctrls1.wrQLenPdf::9                      2                       # What write queue length does an incoming req see
system.mem_ctrls1.wrQLenPdf::10                     2                       # What write queue length does an incoming req see
system.mem_ctrls1.wrQLenPdf::11                     2                       # What write queue length does an incoming req see
system.mem_ctrls1.wrQLenPdf::12                     2                       # What write queue length does an incoming req see
system.mem_ctrls1.wrQLenPdf::13                     2                       # What write queue length does an incoming req see
system.mem_ctrls1.wrQLenPdf::14                     2                       # What write queue length does an incoming req see
system.mem_ctrls1.wrQLenPdf::15                152836                       # What write queue length does an incoming req see
system.mem_ctrls1.wrQLenPdf::16                161463                       # What write queue length does an incoming req see
system.mem_ctrls1.wrQLenPdf::17                283603                       # What write queue length does an incoming req see
system.mem_ctrls1.wrQLenPdf::18                299773                       # What write queue length does an incoming req see
system.mem_ctrls1.wrQLenPdf::19                303028                       # What write queue length does an incoming req see
system.mem_ctrls1.wrQLenPdf::20                302991                       # What write queue length does an incoming req see
system.mem_ctrls1.wrQLenPdf::21                302857                       # What write queue length does an incoming req see
system.mem_ctrls1.wrQLenPdf::22                302981                       # What write queue length does an incoming req see
system.mem_ctrls1.wrQLenPdf::23                303378                       # What write queue length does an incoming req see
system.mem_ctrls1.wrQLenPdf::24                303352                       # What write queue length does an incoming req see
system.mem_ctrls1.wrQLenPdf::25                302965                       # What write queue length does an incoming req see
system.mem_ctrls1.wrQLenPdf::26                302867                       # What write queue length does an incoming req see
system.mem_ctrls1.wrQLenPdf::27                302853                       # What write queue length does an incoming req see
system.mem_ctrls1.wrQLenPdf::28                303261                       # What write queue length does an incoming req see
system.mem_ctrls1.wrQLenPdf::29                304464                       # What write queue length does an incoming req see
system.mem_ctrls1.wrQLenPdf::30                308934                       # What write queue length does an incoming req see
system.mem_ctrls1.wrQLenPdf::31                302100                       # What write queue length does an incoming req see
system.mem_ctrls1.wrQLenPdf::32                301268                       # What write queue length does an incoming req see
system.mem_ctrls1.wrQLenPdf::33                   535                       # What write queue length does an incoming req see
system.mem_ctrls1.wrQLenPdf::34                   140                       # What write queue length does an incoming req see
system.mem_ctrls1.wrQLenPdf::35                    73                       # What write queue length does an incoming req see
system.mem_ctrls1.wrQLenPdf::36                    64                       # What write queue length does an incoming req see
system.mem_ctrls1.wrQLenPdf::37                    31                       # What write queue length does an incoming req see
system.mem_ctrls1.wrQLenPdf::38                    27                       # What write queue length does an incoming req see
system.mem_ctrls1.wrQLenPdf::39                    23                       # What write queue length does an incoming req see
system.mem_ctrls1.wrQLenPdf::40                    34                       # What write queue length does an incoming req see
system.mem_ctrls1.wrQLenPdf::41                    33                       # What write queue length does an incoming req see
system.mem_ctrls1.wrQLenPdf::42                    24                       # What write queue length does an incoming req see
system.mem_ctrls1.wrQLenPdf::43                    23                       # What write queue length does an incoming req see
system.mem_ctrls1.wrQLenPdf::44                    23                       # What write queue length does an incoming req see
system.mem_ctrls1.wrQLenPdf::45                    19                       # What write queue length does an incoming req see
system.mem_ctrls1.wrQLenPdf::46                    12                       # What write queue length does an incoming req see
system.mem_ctrls1.wrQLenPdf::47                     6                       # What write queue length does an incoming req see
system.mem_ctrls1.wrQLenPdf::48                     4                       # What write queue length does an incoming req see
system.mem_ctrls1.wrQLenPdf::49                     3                       # What write queue length does an incoming req see
system.mem_ctrls1.wrQLenPdf::50                     4                       # What write queue length does an incoming req see
system.mem_ctrls1.wrQLenPdf::51                     5                       # What write queue length does an incoming req see
system.mem_ctrls1.wrQLenPdf::52                     2                       # What write queue length does an incoming req see
system.mem_ctrls1.wrQLenPdf::53                     1                       # What write queue length does an incoming req see
system.mem_ctrls1.wrQLenPdf::54                     1                       # What write queue length does an incoming req see
system.mem_ctrls1.wrQLenPdf::55                     0                       # What write queue length does an incoming req see
system.mem_ctrls1.wrQLenPdf::56                     0                       # What write queue length does an incoming req see
system.mem_ctrls1.wrQLenPdf::57                     0                       # What write queue length does an incoming req see
system.mem_ctrls1.wrQLenPdf::58                     0                       # What write queue length does an incoming req see
system.mem_ctrls1.wrQLenPdf::59                     0                       # What write queue length does an incoming req see
system.mem_ctrls1.wrQLenPdf::60                     0                       # What write queue length does an incoming req see
system.mem_ctrls1.wrQLenPdf::61                     0                       # What write queue length does an incoming req see
system.mem_ctrls1.wrQLenPdf::62                     0                       # What write queue length does an incoming req see
system.mem_ctrls1.wrQLenPdf::63                     0                       # What write queue length does an incoming req see
system.mem_ctrls1.bytesPerActivate::samples     10187140                       # Bytes accessed per row activation
system.mem_ctrls1.bytesPerActivate::mean    92.571546                       # Bytes accessed per row activation
system.mem_ctrls1.bytesPerActivate::gmean    82.126088                       # Bytes accessed per row activation
system.mem_ctrls1.bytesPerActivate::stdev    59.276936                       # Bytes accessed per row activation
system.mem_ctrls1.bytesPerActivate::0-127      7377549     72.42%     72.42% # Bytes accessed per row activation
system.mem_ctrls1.bytesPerActivate::128-255      2329989     22.87%     95.29% # Bytes accessed per row activation
system.mem_ctrls1.bytesPerActivate::256-383       425254      4.17%     99.47% # Bytes accessed per row activation
system.mem_ctrls1.bytesPerActivate::384-511        40705      0.40%     99.87% # Bytes accessed per row activation
system.mem_ctrls1.bytesPerActivate::512-639         6705      0.07%     99.93% # Bytes accessed per row activation
system.mem_ctrls1.bytesPerActivate::640-767         2151      0.02%     99.95% # Bytes accessed per row activation
system.mem_ctrls1.bytesPerActivate::768-895         1382      0.01%     99.97% # Bytes accessed per row activation
system.mem_ctrls1.bytesPerActivate::896-1023          721      0.01%     99.97% # Bytes accessed per row activation
system.mem_ctrls1.bytesPerActivate::1024-1151         2684      0.03%    100.00% # Bytes accessed per row activation
system.mem_ctrls1.bytesPerActivate::total     10187140                       # Bytes accessed per row activation
system.mem_ctrls1.rdPerTurnAround::samples       300571                       # Reads before turning the bus around for writes
system.mem_ctrls1.rdPerTurnAround::mean     31.778079                       # Reads before turning the bus around for writes
system.mem_ctrls1.rdPerTurnAround::stdev    62.025641                       # Reads before turning the bus around for writes
system.mem_ctrls1.rdPerTurnAround::0-1023       300544     99.99%     99.99% # Reads before turning the bus around for writes
system.mem_ctrls1.rdPerTurnAround::1024-2047           19      0.01%    100.00% # Reads before turning the bus around for writes
system.mem_ctrls1.rdPerTurnAround::2048-3071            2      0.00%    100.00% # Reads before turning the bus around for writes
system.mem_ctrls1.rdPerTurnAround::3072-4095            2      0.00%    100.00% # Reads before turning the bus around for writes
system.mem_ctrls1.rdPerTurnAround::4096-5119            1      0.00%    100.00% # Reads before turning the bus around for writes
system.mem_ctrls1.rdPerTurnAround::6144-7167            1      0.00%    100.00% # Reads before turning the bus around for writes
system.mem_ctrls1.rdPerTurnAround::13312-14335            1      0.00%    100.00% # Reads before turning the bus around for writes
system.mem_ctrls1.rdPerTurnAround::27648-28671            1      0.00%    100.00% # Reads before turning the bus around for writes
system.mem_ctrls1.rdPerTurnAround::total       300571                       # Reads before turning the bus around for writes
system.mem_ctrls1.wrPerTurnAround::samples       300571                       # Writes before turning the bus around for reads
system.mem_ctrls1.wrPerTurnAround::mean     17.120966                       # Writes before turning the bus around for reads
system.mem_ctrls1.wrPerTurnAround::gmean    17.082946                       # Writes before turning the bus around for reads
system.mem_ctrls1.wrPerTurnAround::stdev     1.229040                       # Writes before turning the bus around for reads
system.mem_ctrls1.wrPerTurnAround::16-19       298169     99.20%     99.20% # Writes before turning the bus around for reads
system.mem_ctrls1.wrPerTurnAround::20-23         2318      0.77%     99.97% # Writes before turning the bus around for reads
system.mem_ctrls1.wrPerTurnAround::24-27           32      0.01%     99.98% # Writes before turning the bus around for reads
system.mem_ctrls1.wrPerTurnAround::28-31           10      0.00%     99.99% # Writes before turning the bus around for reads
system.mem_ctrls1.wrPerTurnAround::32-35            8      0.00%     99.99% # Writes before turning the bus around for reads
system.mem_ctrls1.wrPerTurnAround::36-39            6      0.00%     99.99% # Writes before turning the bus around for reads
system.mem_ctrls1.wrPerTurnAround::40-43            6      0.00%     99.99% # Writes before turning the bus around for reads
system.mem_ctrls1.wrPerTurnAround::44-47            3      0.00%     99.99% # Writes before turning the bus around for reads
system.mem_ctrls1.wrPerTurnAround::48-51            2      0.00%     99.99% # Writes before turning the bus around for reads
system.mem_ctrls1.wrPerTurnAround::52-55            3      0.00%    100.00% # Writes before turning the bus around for reads
system.mem_ctrls1.wrPerTurnAround::60-63            3      0.00%    100.00% # Writes before turning the bus around for reads
system.mem_ctrls1.wrPerTurnAround::72-75            1      0.00%    100.00% # Writes before turning the bus around for reads
system.mem_ctrls1.wrPerTurnAround::76-79            1      0.00%    100.00% # Writes before turning the bus around for reads
system.mem_ctrls1.wrPerTurnAround::84-87            2      0.00%    100.00% # Writes before turning the bus around for reads
system.mem_ctrls1.wrPerTurnAround::88-91            4      0.00%    100.00% # Writes before turning the bus around for reads
system.mem_ctrls1.wrPerTurnAround::92-95            1      0.00%    100.00% # Writes before turning the bus around for reads
system.mem_ctrls1.wrPerTurnAround::116-119            1      0.00%    100.00% # Writes before turning the bus around for reads
system.mem_ctrls1.wrPerTurnAround::128-131            1      0.00%    100.00% # Writes before turning the bus around for reads
system.mem_ctrls1.wrPerTurnAround::total       300571                       # Writes before turning the bus around for reads
system.mem_ctrls1.totQLat                264931987659                       # Total ticks spent queuing
system.mem_ctrls1.totMemAccLat           444724406409                       # Total ticks spent from burst creation until serviced by the DRAM
system.mem_ctrls1.totBusLat               47944645000                       # Total ticks spent in databus transfers
system.mem_ctrls1.avgQLat                    27628.94                       # Average queueing delay per DRAM burst
system.mem_ctrls1.avgBusLat                   5000.00                       # Average bus latency per DRAM burst
system.mem_ctrls1.avgMemAccLat               46378.94                       # Average memory access latency per DRAM burst
system.mem_ctrls1.avgRdBW                      222.80                       # Average DRAM read bandwidth in MiByte/s
system.mem_ctrls1.avgWrBW                      119.57                       # Average achieved write bandwidth in MiByte/s
system.mem_ctrls1.avgRdBWSys                   222.80                       # Average system read bandwidth in MiByte/s
system.mem_ctrls1.avgWrBWSys                   119.57                       # Average system write bandwidth in MiByte/s
system.mem_ctrls1.peakBW                     12800.00                       # Theoretical peak bandwidth in MiByte/s
system.mem_ctrls1.busUtil                        2.67                       # Data bus utilization in percentage
system.mem_ctrls1.busUtilRead                    1.74                       # Data bus utilization in percentage for reads
system.mem_ctrls1.busUtilWrite                   0.93                       # Data bus utilization in percentage for writes
system.mem_ctrls1.avgRdQLen                      1.06                       # Average read queue length when enqueuing
system.mem_ctrls1.avgWrQLen                     24.85                       # Average write queue length when enqueuing
system.mem_ctrls1.readRowHits                 3497828                       # Number of row buffer hits during reads
system.mem_ctrls1.writeRowHits                1050021                       # Number of row buffer hits during writes
system.mem_ctrls1.readRowHitRate                36.48                       # Row buffer hit rate for reads
system.mem_ctrls1.writeRowHitRate               20.40                       # Row buffer hit rate for writes
system.mem_ctrls1.avgGap                    186935.42                       # Average gap between requests
system.mem_ctrls1.pageHitRate                   30.86                       # Row buffer hit rate, read and write combined
system.mem_ctrls1_0.actEnergy             36383148060                       # Energy for activate commands per rank (pJ)
system.mem_ctrls1_0.preEnergy             19338094215                       # Energy for precharge commands per rank (pJ)
system.mem_ctrls1_0.readEnergy            34248238080                       # Energy for read commands per rank (pJ)
system.mem_ctrls1_0.writeEnergy           13436995140                       # Energy for write commands per rank (pJ)
system.mem_ctrls1_0.refreshEnergy        216907070640.000061                       # Energy for refresh commands per rank (pJ)
system.mem_ctrls1_0.actBackEnergy        213558792930                       # Energy for active background per rank (pJ)
system.mem_ctrls1_0.preBackEnergy          5707964640                       # Energy for precharge background per rank (pJ)
system.mem_ctrls1_0.actPowerDownEnergy   913093354620                       # Energy for active power-down per rank (pJ)
system.mem_ctrls1_0.prePowerDownEnergy    84199192800                       # Energy for precharge power-down per rank (pJ)
system.mem_ctrls1_0.selfRefreshEnergy     15188836335                       # Energy for self refresh per rank (pJ)
system.mem_ctrls1_0.totalEnergy          1552088552010                       # Total energy per rank (pJ)
system.mem_ctrls1_0.averagePower           563.473563                       # Core power per rank (mW)
system.mem_ctrls1_0.totalIdleTime        2271238309313                       # Total Idle time Per DRAM Rank
system.mem_ctrls1_0.memoryStateTime::IDLE   3618290895                       # Time in different power states
system.mem_ctrls1_0.memoryStateTime::REF  91792384000                       # Time in different power states
system.mem_ctrls1_0.memoryStateTime::SREF  49579647762                       # Time in different power states
system.mem_ctrls1_0.memoryStateTime::PRE_PDN 219259599764                       # Time in different power states
system.mem_ctrls1_0.memoryStateTime::ACT 387850665424                       # Time in different power states
system.mem_ctrls1_0.memoryStateTime::ACT_PDN 2002400496146                       # Time in different power states
system.mem_ctrls1_1.actEnergy             36353074380                       # Energy for activate commands per rank (pJ)
system.mem_ctrls1_1.preEnergy             19322102085                       # Energy for precharge commands per rank (pJ)
system.mem_ctrls1_1.readEnergy            34216714980                       # Energy for read commands per rank (pJ)
system.mem_ctrls1_1.writeEnergy           13425469380                       # Energy for write commands per rank (pJ)
system.mem_ctrls1_1.refreshEnergy        216596062800.000061                       # Energy for refresh commands per rank (pJ)
system.mem_ctrls1_1.actBackEnergy        212774858820                       # Energy for active background per rank (pJ)
system.mem_ctrls1_1.preBackEnergy          5684662080                       # Energy for precharge background per rank (pJ)
system.mem_ctrls1_1.actPowerDownEnergy   913962155460                       # Energy for active power-down per rank (pJ)
system.mem_ctrls1_1.prePowerDownEnergy    83526712800                       # Energy for precharge power-down per rank (pJ)
system.mem_ctrls1_1.selfRefreshEnergy     15403417815                       # Energy for self refresh per rank (pJ)
system.mem_ctrls1_1.totalEnergy          1551290803470                       # Total energy per rank (pJ)
system.mem_ctrls1_1.averagePower           563.183950                       # Core power per rank (mW)
system.mem_ctrls1_1.totalIdleTime        2273029656639                       # Total Idle time Per DRAM Rank
system.mem_ctrls1_1.memoryStateTime::IDLE   3531764557                       # Time in different power states
system.mem_ctrls1_1.memoryStateTime::REF  91659030000                       # Time in different power states
system.mem_ctrls1_1.memoryStateTime::SREF  51208395563                       # Time in different power states
system.mem_ctrls1_1.memoryStateTime::PRE_PDN 217517129145                       # Time in different power states
system.mem_ctrls1_1.memoryStateTime::ACT 386279676291                       # Time in different power states
system.mem_ctrls1_1.memoryStateTime::ACT_PDN 2004305088435                       # Time in different power states
system.pwrStateResidencyTicks::UNDEFINED 146231489401065                       # Cumulative time (in ticks) in various power states
system.cpu.branchPred.lookups                       0                       # Number of BP lookups
system.cpu.branchPred.condPredicted                 0                       # Number of conditional branches predicted
system.cpu.branchPred.condIncorrect                 0                       # Number of conditional branches incorrect
system.cpu.branchPred.BTBLookups                    0                       # Number of BTB lookups
system.cpu.branchPred.BTBHits                       0                       # Number of BTB hits
system.cpu.branchPred.BTBCorrect                    0                       # Number of correct BTB predictions (this stat may not work properly.
system.cpu.branchPred.BTBHitPct                   nan                       # BTB Hit Percentage
system.cpu.branchPred.usedRAS                       0                       # Number of times the RAS was used to get a target.
system.cpu.branchPred.RASInCorrect                  0                       # Number of incorrect RAS predictions.
system.cpu.branchPred.indirectLookups               0                       # Number of indirect predictor lookups.
system.cpu.branchPred.indirectHits                  0                       # Number of indirect target hits.
system.cpu.branchPred.indirectMisses                0                       # Number of indirect misses.
system.cpu.branchPredindirectMispredicted            0                       # Number of mispredicted indirect branches.
system.cpu_voltage_domain.voltage                   1                       # Voltage in Volts
system.cpu_clk_domain.clock                       333                       # Clock period in ticks
system.cpu.dtb.fetch_hits                           0                       # ITB hits
system.cpu.dtb.fetch_misses                         0                       # ITB misses
system.cpu.dtb.fetch_acv                            0                       # ITB acv
system.cpu.dtb.fetch_accesses                       0                       # ITB accesses
system.cpu.dtb.read_hits                           13                       # DTB read hits
system.cpu.dtb.read_misses                          0                       # DTB read misses
[...]
system.switch_cpus_1.iq.int_inst_queue_wakeup_accesses    225032501                       # Number of integer instruction queue wakeup accesses
system.switch_cpus_1.iq.fp_inst_queue_reads    705620970                       # Number of floating instruction queue reads
system.switch_cpus_1.iq.fp_inst_queue_writes    375471037                       # Number of floating instruction queue writes
system.switch_cpus_1.iq.fp_inst_queue_wakeup_accesses    328497357                       # Number of floating instruction queue wakeup accesses
system.switch_cpus_1.iq.int_alu_accesses    241033259                       # Number of integer alu accesses
system.switch_cpus_1.iq.fp_alu_accesses     359939748                       # Number of floating point alu accesses
system.switch_cpus_1.iew.lsq.thread0.forwLoads      2631393                       # Number of loads that had data forwarded from stores
system.switch_cpus_1.iew.lsq.thread0.invAddrLoads            0                       # Number of loads ignored due to an invalid address
system.switch_cpus_1.iew.lsq.thread0.squashedLoads     26544514                       # Number of loads squashed
system.switch_cpus_1.iew.lsq.thread0.ignoredResponses          228                       # Number of memory responses ignored because the instruction is squashed
system.switch_cpus_1.iew.lsq.thread0.memOrderViolation         1918                       # Number of memory ordering violations
system.switch_cpus_1.iew.lsq.thread0.squashedStores      4443860                       # Number of stores squashed
system.switch_cpus_1.iew.lsq.thread0.invAddrSwpfs            0                       # Number of software prefetches ignored due to an invalid address
system.switch_cpus_1.iew.lsq.thread0.blockedLoads            0                       # Number of blocked loads due to partial load-store forwarding
system.switch_cpus_1.iew.lsq.thread0.rescheduledLoads            0                       # Number of loads that were rescheduled
system.switch_cpus_1.iew.lsq.thread0.cacheBlocked     19372142                       # Number of times an access to memory failed due to the cache being blocked
system.switch_cpus_1.iew.iewIdleCycles              0                       # Number of cycles IEW is idle
system.switch_cpus_1.iew.iewSquashCycles       856515                       # Number of cycles IEW is squashing
system.switch_cpus_1.iew.iewBlockCycles      28105372                       # Number of cycles IEW is blocking
system.switch_cpus_1.iew.iewUnblockCycles    259298399                       # Number of cycles IEW is unblocking
system.switch_cpus_1.iew.iewDispatchedInsts    576105795                       # Number of instructions dispatched to IQ
system.switch_cpus_1.iew.iewDispSquashedInsts        18114                       # Number of squashed instructions skipped by dispatch
system.switch_cpus_1.iew.iewDispLoadInsts    216795328                       # Number of dispatched load instructions
system.switch_cpus_1.iew.iewDispStoreInsts     30326233                       # Number of dispatched store instructions
system.switch_cpus_1.iew.iewDispNonSpecInsts          277                       # Number of dispatched non-speculative instructions
system.switch_cpus_1.iew.iewIQFullEvents       115098                       # Number of times the IQ has become full, causing a stall
system.switch_cpus_1.iew.iewLSQFullEvents    258981601                       # Number of times the LSQ has become full, causing a stall
system.switch_cpus_1.iew.memOrderViolationEvents         1918                       # Number of memory order violations
system.switch_cpus_1.iew.predictedTakenIncorrect        31025                       # Number of branches that were predicted taken incorrectly
system.switch_cpus_1.iew.predictedNotTakenIncorrect          664                       # Number of branches that were predicted not taken incorrectly
system.switch_cpus_1.iew.branchMispredicts        31689                       # Number of branch mispredicts detected at execute
system.switch_cpus_1.iew.iewExecutedInsts    576421328                       # Number of executed instructions
system.switch_cpus_1.iew.iewExecLoadInsts    234342590                       # Number of load instructions executed
system.switch_cpus_1.iew.iewExecSquashedInsts       233171                       # Number of squashed instructions skipped in execute
system.switch_cpus_1.iew.exec_swp                   0                       # number of swp insts executed
system.switch_cpus_1.iew.exec_nop             2219867                       # number of nop insts executed
system.switch_cpus_1.iew.exec_refs          261708153                       # number of memory reference insts executed
system.switch_cpus_1.iew.exec_branches        9884165                       # Number of branches executed
system.switch_cpus_1.iew.exec_stores         27365563                       # Number of stores executed
system.switch_cpus_1.iew.exec_rate           0.575430                       # Inst execution rate
system.switch_cpus_1.iew.wb_sent            556587223                       # cumulative count of insts sent to commit
system.switch_cpus_1.iew.wb_count           553529858                       # cumulative count of insts written-back
system.switch_cpus_1.iew.wb_producers       372031531                       # num instructions producing a value
system.switch_cpus_1.iew.wb_consumers       400446433                       # num instructions consuming a value
system.switch_cpus_1.iew.wb_rate             0.552578                       # insts written-back per cycle
system.switch_cpus_1.iew.wb_fanout           0.929042                       # average fanout of values written-back
system.switch_cpus_1.commit.commitSquashedInsts     69010231                       # The number of squashed insts skipped by commit
system.switch_cpus_1.commit.commitNonSpecStalls          192                       # The number of times commit has been forced to stall to communicate backwards
system.switch_cpus_1.commit.branchMispredicts        28653                       # The number of times a branch was mispredicted
system.switch_cpus_1.commit.committed_per_cycle::samples    992581461                       # Number of insts commited each cycle
system.switch_cpus_1.commit.committed_per_cycle::mean     0.505959                       # Number of insts commited each cycle
system.switch_cpus_1.commit.committed_per_cycle::stdev     1.770458                       # Number of insts commited each cycle
system.switch_cpus_1.commit.committed_per_cycle::underflows            0      0.00%      0.00% # Number of insts commited each cycle
system.switch_cpus_1.commit.committed_per_cycle::0    884735064     89.13%     89.13% # Number of insts commited each cycle
system.switch_cpus_1.commit.committed_per_cycle::1     32713606      3.30%     92.43% # Number of insts commited each cycle
system.switch_cpus_1.commit.committed_per_cycle::2      8436220      0.85%     93.28% # Number of insts commited each cycle
system.switch_cpus_1.commit.committed_per_cycle::3      7302386      0.74%     94.02% # Number of insts commited each cycle
system.switch_cpus_1.commit.committed_per_cycle::4      5711728      0.58%     94.59% # Number of insts commited each cycle
system.switch_cpus_1.commit.committed_per_cycle::5      3756612      0.38%     94.97% # Number of insts commited each cycle
system.switch_cpus_1.commit.committed_per_cycle::6      3744299      0.38%     95.35% # Number of insts commited each cycle
system.switch_cpus_1.commit.committed_per_cycle::7      2835494      0.29%     95.63% # Number of insts commited each cycle
system.switch_cpus_1.commit.committed_per_cycle::8     43346052      4.37%    100.00% # Number of insts commited each cycle
system.switch_cpus_1.commit.committed_per_cycle::overflows            0      0.00%    100.00% # Number of insts commited each cycle
system.switch_cpus_1.commit.committed_per_cycle::min_value            0                       # Number of insts commited each cycle
system.switch_cpus_1.commit.committed_per_cycle::max_value            8                       # Number of insts commited each cycle
system.switch_cpus_1.commit.committed_per_cycle::total    992581461                       # Number of insts commited each cycle
system.switch_cpus_1.commit.committedInsts    502205844                       # Number of instructions committed
system.switch_cpus_1.commit.committedOps    502205844                       # Number of ops (including micro ops) committed
system.switch_cpus_1.commit.swp_count               0                       # Number of s/w prefetches committed
system.switch_cpus_1.commit.refs            216133151                       # Number of memory references committed
system.switch_cpus_1.commit.loads           190250784                       # Number of loads committed
system.switch_cpus_1.commit.membars                96                       # Number of memory barriers committed
system.switch_cpus_1.commit.branches          8861025                       # Number of branches committed
system.switch_cpus_1.commit.fp_insts        315285095                       # Number of committed floating point instructions.
system.switch_cpus_1.commit.int_insts       342173999                       # Number of committed integer instructions.
system.switch_cpus_1.commit.function_calls       663699                       # Number of function calls committed.
system.switch_cpus_1.commit.op_class_0::No_OpClass      2205843      0.44%      0.44% # Class of committed instruction
system.switch_cpus_1.commit.op_class_0::IntAlu    120908672     24.08%     24.51% # Class of committed instruction
system.switch_cpus_1.commit.op_class_0::IntMult      4324280      0.86%     25.38% # Class of committed instruction
system.switch_cpus_1.commit.op_class_0::IntDiv            0      0.00%     25.38% # Class of committed instruction
system.switch_cpus_1.commit.op_class_0::FloatAdd     65751497     13.09%     38.47% # Class of committed instruction
system.switch_cpus_1.commit.op_class_0::FloatCmp      1103604      0.22%     38.69% # Class of committed instruction
system.switch_cpus_1.commit.op_class_0::FloatCvt      1105901      0.22%     38.91% # Class of committed instruction
system.switch_cpus_1.commit.op_class_0::FloatMult     90451620     18.01%     56.92% # Class of committed instruction
system.switch_cpus_1.commit.op_class_0::FloatMultAcc            0      0.00%     56.92% # Class of committed instruction
system.switch_cpus_1.commit.op_class_0::FloatDiv       221180      0.04%     56.96% # Class of committed instruction
system.switch_cpus_1.commit.op_class_0::FloatMisc            0      0.00%     56.96% # Class of committed instruction
system.switch_cpus_1.commit.op_class_0::FloatSqrt            0      0.00%     56.96% # Class of committed instruction
system.switch_cpus_1.commit.op_class_0::SimdAdd            0      0.00%     56.96% # Class of committed instruction
system.switch_cpus_1.commit.op_class_0::SimdAddAcc            0      0.00%     56.96% # Class of committed instruction
system.switch_cpus_1.commit.op_class_0::SimdAlu            0      0.00%     56.96% # Class of committed instruction
system.switch_cpus_1.commit.op_class_0::SimdCmp            0      0.00%     56.96% # Class of committed instruction
system.switch_cpus_1.commit.op_class_0::SimdCvt            0      0.00%     56.96% # Class of committed instruction
system.switch_cpus_1.commit.op_class_0::SimdMisc            0      0.00%     56.96% # Class of committed instruction
system.switch_cpus_1.commit.op_class_0::SimdMult            0      0.00%     56.96% # Class of committed instruction
system.switch_cpus_1.commit.op_class_0::SimdMultAcc            0      0.00%     56.96% # Class of committed instruction
system.switch_cpus_1.commit.op_class_0::SimdShift            0      0.00%     56.96% # Class of committed instruction
system.switch_cpus_1.commit.op_class_0::SimdShiftAcc            0      0.00%     56.96% # Class of committed instruction
system.switch_cpus_1.commit.op_class_0::SimdSqrt            0      0.00%     56.96% # Class of committed instruction
system.switch_cpus_1.commit.op_class_0::SimdFloatAdd            0      0.00%     56.96% # Class of committed instruction
system.switch_cpus_1.commit.op_class_0::SimdFloatAlu            0      0.00%     56.96% # Class of committed instruction
system.switch_cpus_1.commit.op_class_0::SimdFloatCmp            0      0.00%     56.96% # Class of committed instruction
system.switch_cpus_1.commit.op_class_0::SimdFloatCvt            0      0.00%     56.96% # Class of committed instruction
system.switch_cpus_1.commit.op_class_0::SimdFloatDiv            0      0.00%     56.96% # Class of committed instruction
system.switch_cpus_1.commit.op_class_0::SimdFloatMisc            0      0.00%     56.96% # Class of committed instruction
system.switch_cpus_1.commit.op_class_0::SimdFloatMult            0      0.00%     56.96% # Class of committed instruction
system.switch_cpus_1.commit.op_class_0::SimdFloatMultAcc            0      0.00%     56.96% # Class of committed instruction
system.switch_cpus_1.commit.op_class_0::SimdFloatSqrt            0      0.00%     56.96% # Class of committed instruction
system.switch_cpus_1.commit.op_class_0::MemRead     55663736     11.08%     68.05% # Class of committed instruction
system.switch_cpus_1.commit.op_class_0::MemWrite      3818218      0.76%     68.81% # Class of committed instruction
system.switch_cpus_1.commit.op_class_0::FloatMemRead    134587144     26.80%     95.61% # Class of committed instruction
system.switch_cpus_1.commit.op_class_0::FloatMemWrite     22064149      4.39%    100.00% # Class of committed instruction
system.switch_cpus_1.commit.op_class_0::IprAccess            0      0.00%    100.00% # Class of committed instruction
system.switch_cpus_1.commit.op_class_0::InstPrefetch            0      0.00%    100.00% # Class of committed instruction
system.switch_cpus_1.commit.op_class_0::total    502205844                       # Class of committed instruction
system.switch_cpus_1.commit.bw_lim_events     43346052                       # number cycles where commit BW limit reached
system.switch_cpus_1.rob.rob_reads         1509708739                       # The number of ROB reads
system.switch_cpus_1.rob.rob_writes        1151400398                       # The number of ROB writes
system.switch_cpus_1.timesIdled                  1409                       # Number of times that the entire CPU went into an idle state and unscheduled itself
system.switch_cpus_1.idleCycles                172568                       # Total number of cycles that the CPU has spent unscheduled due to idling
system.switch_cpus_1.committedInsts         500000001                       # Number of Instructions Simulated
system.switch_cpus_1.committedOps           500000001                       # Number of Ops (including micro ops) Simulated
system.switch_cpus_1.cpi                     2.003444                       # CPI: Cycles Per Instruction
system.switch_cpus_1.cpi_total               2.003444                       # CPI: Total CPI of All Threads
system.switch_cpus_1.ipc                     0.499140                       # IPC: Instructions Per Cycle
system.switch_cpus_1.ipc_total               0.499140                       # IPC: Total IPC of All Threads
system.switch_cpus_1.int_regfile_reads      489933331                       # number of integer regfile reads
system.switch_cpus_1.int_regfile_writes     212807579                       # number of integer regfile writes
system.switch_cpus_1.fp_regfile_reads       346021554                       # number of floating regfile reads
system.switch_cpus_1.fp_regfile_writes      304210138                       # number of floating regfile writes
system.switch_cpus_1.misc_regfile_reads       6857349                       # number of misc regfile reads
system.switch_cpus_1.misc_regfile_writes          192                       # number of misc regfile writes
system.tol3bus.snoop_filter.tot_requests     45766080                       # Total number of requests made to the snoop filter.
system.tol3bus.snoop_filter.hit_single_requests     22880732                       # Number of requests hitting in the snoop filter with a single holder of the requested data.
system.tol3bus.snoop_filter.hit_multi_requests            0                       # Number of requests hitting in the snoop filter with multiple (>1) holders of the requested data.
system.tol3bus.snoop_filter.tot_snoops           6831                       # Total number of snoops made to the snoop filter.
system.tol3bus.snoop_filter.hit_single_snoops         6831                       # Number of snoops hitting in the snoop filter with a single holder of the requested data.
system.tol3bus.snoop_filter.hit_multi_snoops            0                       # Number of snoops hitting in the snoop filter with multiple (>1) holders of the requested data.
system.tol3bus.pwrStateResidencyTicks::UNDEFINED 146231489401065                       # Cumulative time (in ticks) in various power states
system.tol3bus.trans_dist::ReadResp          22599809                       # Transaction distribution
system.tol3bus.trans_dist::WritebackDirty     21084824                       # Transaction distribution
system.tol3bus.trans_dist::CleanEvict        20910653                       # Transaction distribution
system.tol3bus.trans_dist::UpgradeReq              10                       # Transaction distribution
system.tol3bus.trans_dist::UpgradeResp             10                       # Transaction distribution
system.tol3bus.trans_dist::ReadExReq           285539                       # Transaction distribution
system.tol3bus.trans_dist::ReadExResp          285539                       # Transaction distribution
system.tol3bus.trans_dist::ReadSharedReq     22599809                       # Transaction distribution
system.tol3bus.pkt_count_system.cpu.l2.mem_side::system.l3.cpu_side     68651438                       # Packet count per connected master and slave (bytes)
system.tol3bus.pkt_size_system.cpu.l2.mem_side::system.l3.cpu_side   2155398912                       # Cumulative packet size per connected master and slave (bytes)
system.tol3bus.snoops                        19114755                       # Total snoops (count)
system.tol3bus.snoopTraffic                 658692096                       # Total snoop traffic (bytes)
system.tol3bus.snoop_fanout::samples         42000113                       # Request fanout histogram
system.tol3bus.snoop_fanout::mean            0.000163                       # Request fanout histogram
system.tol3bus.snoop_fanout::stdev           0.012752                       # Request fanout histogram
system.tol3bus.snoop_fanout::underflows             0      0.00%      0.00% # Request fanout histogram
system.tol3bus.snoop_fanout::0               41993282     99.98%     99.98% # Request fanout histogram
system.tol3bus.snoop_fanout::1                   6831      0.02%    100.00% # Request fanout histogram
system.tol3bus.snoop_fanout::overflows              0      0.00%    100.00% # Request fanout histogram
system.tol3bus.snoop_fanout::min_value              0                       # Request fanout histogram
system.tol3bus.snoop_fanout::max_value              1                       # Request fanout histogram
system.tol3bus.snoop_fanout::total           42000113                       # Request fanout histogram
system.tol3bus.reqLayer0.occupancy        18834093720                       # Layer occupancy (ticks)
system.tol3bus.reqLayer0.utilization              0.7                       # Layer utilization (%)
system.tol3bus.respLayer0.occupancy       15241645098                       # Layer occupancy (ticks)
system.tol3bus.respLayer0.utilization             0.6                       # Layer utilization (%)

---------- End Simulation Statistics   ----------
