
---------- Begin Simulation Statistics ----------
sim_seconds                                  1.085898                       # Number of seconds simulated
sim_ticks                                1085897822859                       # Number of ticks simulated
final_tick                               71110362701754                       # Number of ticks from beginning of simulation (restored from checkpoints and never reset)
sim_freq                                 1000000000000                       # Frequency of simulated ticks
host_inst_rate                                 628903                       # Simulator instruction rate (inst/s)
host_op_rate                                   628903                       # Simulator op (including micro ops) rate (op/s)
host_tick_rate                              569103808                       # Simulator tick rate (ticks/s)
host_mem_usage                                2424004                       # Number of bytes of host memory used
host_seconds                                  1908.08                       # Real time elapsed on the host
sim_insts                                  1200000009                       # Number of instructions simulated
sim_ops                                    1200000009                       # Number of ops (including micro ops) simulated
system.voltage_domain.voltage                       1                       # Voltage in Volts
system.clk_domain.clock                          1000                       # Clock period in ticks
system.mem_ctrls0.pwrStateResidencyTicks::UNDEFINED 71110362701754                       # Cumulative time (in ticks) in various power states
system.mem_ctrls0.bytes_read::cpu.inst             64                       # Number of bytes read from this memory
system.mem_ctrls0.bytes_read::cpu.data            128                       # Number of bytes read from this memory
system.mem_ctrls0.bytes_read::switch_cpus.inst       172480                       # Number of bytes read from this memory
system.mem_ctrls0.bytes_read::switch_cpus.data     10280064                       # Number of bytes read from this memory
system.mem_ctrls0.bytes_read::switch_cpus_1.inst        51392                       # Number of bytes read from this memory
system.mem_ctrls0.bytes_read::switch_cpus_1.data      2420160                       # Number of bytes read from this memory
system.mem_ctrls0.bytes_read::total          12924288                       # Number of bytes read from this memory
system.mem_ctrls0.bytes_inst_read::cpu.inst           64                       # Number of instructions bytes read from this memory
system.mem_ctrls0.bytes_inst_read::switch_cpus.inst       172480                       # Number of instructions bytes read from this memory
system.mem_ctrls0.bytes_inst_read::switch_cpus_1.inst        51392                       # Number of instructions bytes read from this memory
system.mem_ctrls0.bytes_inst_read::total       223936                       # Number of instructions bytes read from this memory
system.mem_ctrls0.bytes_written::writebacks      1619264                       # Number of bytes written to this memory
system.mem_ctrls0.bytes_written::total        1619264                       # Number of bytes written to this memory
system.mem_ctrls0.num_reads::cpu.inst               1                       # Number of read requests responded to by this memory
system.mem_ctrls0.num_reads::cpu.data               2                       # Number of read requests responded to by this memory
system.mem_ctrls0.num_reads::switch_cpus.inst         2695                       # Number of read requests responded to by this memory
system.mem_ctrls0.num_reads::switch_cpus.data       160626                       # Number of read requests responded to by this memory
system.mem_ctrls0.num_reads::switch_cpus_1.inst          803                       # Number of read requests responded to by this memory
system.mem_ctrls0.num_reads::switch_cpus_1.data        37815                       # Number of read requests responded to by this memory
system.mem_ctrls0.num_reads::total             201942                       # Number of read requests responded to by this memory
system.mem_ctrls0.num_writes::writebacks        25301                       # Number of write requests responded to by this memory
system.mem_ctrls0.num_writes::total             25301                       # Number of write requests responded to by this memory
system.mem_ctrls0.bw_read::cpu.inst                59                       # Total read bandwidth from this memory (bytes/s)
system.mem_ctrls0.bw_read::cpu.data               118                       # Total read bandwidth from this memory (bytes/s)
system.mem_ctrls0.bw_read::switch_cpus.inst       158836                       # Total read bandwidth from this memory (bytes/s)
system.mem_ctrls0.bw_read::switch_cpus.data      9466880                       # Total read bandwidth from this memory (bytes/s)
system.mem_ctrls0.bw_read::switch_cpus_1.inst        47327                       # Total read bandwidth from this memory (bytes/s)
system.mem_ctrls0.bw_read::switch_cpus_1.data      2228718                       # Total read bandwidth from this memory (bytes/s)
system.mem_ctrls0.bw_read::total             11901937                       # Total read bandwidth from this memory (bytes/s)
system.mem_ctrls0.bw_inst_read::cpu.inst           59                       # Instruction read bandwidth from this memory (bytes/s)
system.mem_ctrls0.bw_inst_read::switch_cpus.inst       158836                       # Instruction read bandwidth from this memory (bytes/s)
system.mem_ctrls0.bw_inst_read::switch_cpus_1.inst        47327                       # Instruction read bandwidth from this memory (bytes/s)
system.mem_ctrls0.bw_inst_read::total          206222                       # Instruction read bandwidth from this memory (bytes/s)
system.mem_ctrls0.bw_write::writebacks        1491175                       # Write bandwidth from this memory (bytes/s)
system.mem_ctrls0.bw_write::total             1491175                       # Write bandwidth from this memory (bytes/s)
system.mem_ctrls0.bw_total::writebacks        1491175                       # Total bandwidth to/from this memory (bytes/s)
system.mem_ctrls0.bw_total::cpu.inst               59                       # Total bandwidth to/from this memory (bytes/s)
system.mem_ctrls0.bw_total::cpu.data              118                       # Total bandwidth to/from this memory (bytes/s)
system.mem_ctrls0.bw_total::switch_cpus.inst       158836                       # Total bandwidth to/from this memory (bytes/s)
system.mem_ctrls0.bw_total::switch_cpus.data      9466880                       # Total bandwidth to/from this memory (bytes/s)
system.mem_ctrls0.bw_total::switch_cpus_1.inst        47327                       # Total bandwidth to/from this memory (bytes/s)
system.mem_ctrls0.bw_total::switch_cpus_1.data      2228718                       # Total bandwidth to/from this memory (bytes/s)
system.mem_ctrls0.bw_total::total            13393113                       # Total bandwidth to/from this memory (bytes/s)
system.mem_ctrls0.readReqs                     201942                       # Number of read requests accepted
system.mem_ctrls0.writeReqs                     25301                       # Number of write requests accepted
system.mem_ctrls0.readBursts                   201942                       # Number of DRAM read bursts, including those serviced by the write queue
system.mem_ctrls0.writeBursts                   25301                       # Number of DRAM write bursts, including those merged in the write queue
system.mem_ctrls0.bytesReadDRAM              12911488                       # Total number of bytes read from DRAM
system.mem_ctrls0.bytesReadWrQ                  12800                       # Total number of bytes read from write queue
system.mem_ctrls0.bytesWritten                1617600                       # Total number of bytes written to DRAM
system.mem_ctrls0.bytesReadSys               12924288                       # Total read bytes from the system interface side
system.mem_ctrls0.bytesWrittenSys             1619264                       # Total written bytes from the system interface side
system.mem_ctrls0.servicedByWrQ                   200                       # Number of DRAM read bursts serviced by the write queue
system.mem_ctrls0.mergedWrBursts                    0                       # Number of DRAM write bursts merged with an existing one
system.mem_ctrls0.neitherReadNorWriteReqs            0                       # Number of requests that are neither read nor write
system.mem_ctrls0.perBankRdBursts::0            11788                       # Per bank write bursts
system.mem_ctrls0.perBankRdBursts::1            12204                       # Per bank write bursts
system.mem_ctrls0.perBankRdBursts::2            14905                       # Per bank write bursts
system.mem_ctrls0.perBankRdBursts::3            12862                       # Per bank write bursts
system.mem_ctrls0.perBankRdBursts::4            12753                       # Per bank write bursts
system.mem_ctrls0.perBankRdBursts::5            11649                       # Per bank write bursts
system.mem_ctrls0.perBankRdBursts::6            11672                       # Per bank write bursts
system.mem_ctrls0.perBankRdBursts::7            12183                       # Per bank write bursts
system.mem_ctrls0.perBankRdBursts::8            11731                       # Per bank write bursts
system.mem_ctrls0.perBankRdBursts::9            11823                       # Per bank write bursts
system.mem_ctrls0.perBankRdBursts::10           12875                       # Per bank write bursts
system.mem_ctrls0.perBankRdBursts::11           11218                       # Per bank write bursts
system.mem_ctrls0.perBankRdBursts::12           14914                       # Per bank write bursts
system.mem_ctrls0.perBankRdBursts::13           13596                       # Per bank write bursts
system.mem_ctrls0.perBankRdBursts::14           12533                       # Per bank write bursts
system.mem_ctrls0.perBankRdBursts::15           13036                       # Per bank write bursts
system.mem_ctrls0.perBankWrBursts::0             1019                       # Per bank write bursts
system.mem_ctrls0.perBankWrBursts::1             1454                       # Per bank write bursts
system.mem_ctrls0.perBankWrBursts::2             1770                       # Per bank write bursts
system.mem_ctrls0.perBankWrBursts::3             1615                       # Per bank write bursts
system.mem_ctrls0.perBankWrBursts::4             1544                       # Per bank write bursts
system.mem_ctrls0.perBankWrBursts::5             1147                       # Per bank write bursts
system.mem_ctrls0.perBankWrBursts::6             1418                       # Per bank write bursts
system.mem_ctrls0.perBankWrBursts::7             1664                       # Per bank write bursts
system.mem_ctrls0.perBankWrBursts::8             1755                       # Per bank write bursts
system.mem_ctrls0.perBankWrBursts::9             1315                       # Per bank write bursts
system.mem_ctrls0.perBankWrBursts::10            1790                       # Per bank write bursts
system.mem_ctrls0.perBankWrBursts::11            1747                       # Per bank write bursts
system.mem_ctrls0.perBankWrBursts::12            2067                       # Per bank write bursts
system.mem_ctrls0.perBankWrBursts::13            1752                       # Per bank write bursts
system.mem_ctrls0.perBankWrBursts::14            1798                       # Per bank write bursts
system.mem_ctrls0.perBankWrBursts::15            1420                       # Per bank write bursts
system.mem_ctrls0.numRdRetry                        0                       # Number of times read queue was full causing retry
system.mem_ctrls0.numWrRetry                        0                       # Number of times write queue was full causing retry
system.mem_ctrls0.totGap                 1085890093929                       # Total gap between requests
system.mem_ctrls0.readPktSize::0                    0                       # Read request sizes (log2)
system.mem_ctrls0.readPktSize::1                    0                       # Read request sizes (log2)
system.mem_ctrls0.readPktSize::2                    0                       # Read request sizes (log2)
system.mem_ctrls0.readPktSize::3                    0                       # Read request sizes (log2)
system.mem_ctrls0.readPktSize::4                    0                       # Read request sizes (log2)
system.mem_ctrls0.readPktSize::5                    0                       # Read request sizes (log2)
system.mem_ctrls0.readPktSize::6               201942                       # Read request sizes (log2)
system.mem_ctrls0.writePktSize::0                   0                       # Write request sizes (log2)
system.mem_ctrls0.writePktSize::1                   0                       # Write request sizes (log2)
system.mem_ctrls0.writePktSize::2                   0                       # Write request sizes (log2)
system.mem_ctrls0.writePktSize::3                   0                       # Write request sizes (log2)
system.mem_ctrls0.writePktSize::4                   0                       # Write request sizes (log2)
system.mem_ctrls0.writePktSize::5                   0                       # Write request sizes (log2)
system.mem_ctrls0.writePktSize::6               25301                       # Write request sizes (log2)
system.mem_ctrls0.rdQLenPdf::0                 199884                       # What read queue length does an incoming req see
system.mem_ctrls0.rdQLenPdf::1                   1808                       # What read queue length does an incoming req see
system.mem_ctrls0.rdQLenPdf::2                     44                       # What read queue length does an incoming req see
system.mem_ctrls0.rdQLenPdf::3                      5                       # What read queue length does an incoming req see
system.mem_ctrls0.rdQLenPdf::4                      1                       # What read queue length does an incoming req see
system.mem_ctrls0.rdQLenPdf::5                      0                       # What read queue length does an incoming req see
system.mem_ctrls0.rdQLenPdf::6                      0                       # What read queue length does an incoming req see
system.mem_ctrls0.rdQLenPdf::7                      0                       # What read queue length does an incoming req see
system.mem_ctrls0.rdQLenPdf::8                      0                       # What read queue length does an incoming req see
system.mem_ctrls0.rdQLenPdf::9                      0                       # What read queue length does an incoming req see
system.mem_ctrls0.rdQLenPdf::10                     0                       # What read queue length does an incoming req see
system.mem_ctrls0.rdQLenPdf::11                     0                       # What read queue length does an incoming req see
system.mem_ctrls0.rdQLenPdf::12                     0                       # What read queue length does an incoming req see
system.mem_ctrls0.rdQLenPdf::13                     0                       # What read queue length does an incoming req see
system.mem_ctrls0.rdQLenPdf::14                     0                       # What read queue length does an incoming req see
system.mem_ctrls0.rdQLenPdf::15                     0                       # What read queue length does an incoming req see
system.mem_ctrls0.rdQLenPdf::16                     0                       # What read queue length does an incoming req see
system.mem_ctrls0.rdQLenPdf::17                     0                       # What read queue length does an incoming req see
system.mem_ctrls0.rdQLenPdf::18                     0                       # What read queue length does an incoming req see
system.mem_ctrls0.rdQLenPdf::19                     0                       # What read queue length does an incoming req see
system.mem_ctrls0.rdQLenPdf::20                     0                       # What read queue length does an incoming req see
system.mem_ctrls0.rdQLenPdf::21                     0                       # What read queue length does an incoming req see
system.mem_ctrls0.rdQLenPdf::22                     0                       # What read queue length does an incoming req see
system.mem_ctrls0.rdQLenPdf::23                     0                       # What read queue length does an incoming req see
system.mem_ctrls0.rdQLenPdf::24                     0                       # What read queue length does an incoming req see
system.mem_ctrls0.rdQLenPdf::25                     0                       # What read queue length does an incoming req see
system.mem_ctrls0.rdQLenPdf::26                     0                       # What read queue length does an incoming req see
system.mem_ctrls0.rdQLenPdf::27                     0                       # What read queue length does an incoming req see
system.mem_ctrls0.rdQLenPdf::28                     0                       # What read queue length does an incoming req see
system.mem_ctrls0.rdQLenPdf::29                     0                       # What read queue length does an incoming req see
system.mem_ctrls0.rdQLenPdf::30                     0                       # What read queue length does an incoming req see
system.mem_ctrls0.rdQLenPdf::31                     0                       # What read queue length does an incoming req see
system.mem_ctrls0.wrQLenPdf::0                      2                       # What write queue length does an incoming req see
system.mem_ctrls0.wrQLenPdf::1                      2                       # What write queue length does an incoming req see
system.mem_ctrls0.wrQLenPdf::2                      2                       # What write queue length does an incoming req see
system.mem_ctrls0.wrQLenPdf::3                      2                       # What write queue length does an incoming req see
system.mem_ctrls0.wrQLenPdf::4                      2                       # What write queue length does an incoming req see
system.mem_ctrls0.wrQLenPdf::5                      2                       # What write queue length does an incoming req see
system.mem_ctrls0.wrQLenPdf::6                      2                       # What write queue length does an incoming req see
system.mem_ctrls0.wrQLenPdf::7                      2                       # What write queue length does an incoming req see
system.mem_ctrls0.wrQLenPdf::8                      2                       # What write queue length does an incoming req see
system.mem_ctrls0.wrQLenPdf::9                      2                       # What write queue length does an incoming req see
system.mem_ctrls0.wrQLenPdf::10                     2                       # What write queue length does an incoming req see
system.mem_ctrls0.wrQLenPdf::11                     2                       # What write queue length does an incoming req see
system.mem_ctrls0.wrQLenPdf::12                     2                       # What write queue length does an incoming req see
system.mem_ctrls0.wrQLenPdf::13                     2                       # What write queue length does an incoming req see
system.mem_ctrls0.wrQLenPdf::14                     2                       # What write queue length does an incoming req see
system.mem_ctrls0.wrQLenPdf::15                  1080                       # What write queue length does an incoming req see
system.mem_ctrls0.wrQLenPdf::16                  1120                       # What write queue length does an incoming req see
system.mem_ctrls0.wrQLenPdf::17                  1439                       # What write queue length does an incoming req see
system.mem_ctrls0.wrQLenPdf::18                  1442                       # What write queue length does an incoming req see
system.mem_ctrls0.wrQLenPdf::19                  1442                       # What write queue length does an incoming req see
system.mem_ctrls0.wrQLenPdf::20                  1443                       # What write queue length does an incoming req see
system.mem_ctrls0.wrQLenPdf::21                  1443                       # What write queue length does an incoming req see
system.mem_ctrls0.wrQLenPdf::22                  1442                       # What write queue length does an incoming req see
system.mem_ctrls0.wrQLenPdf::23                  1444                       # What write queue length does an incoming req see
system.mem_ctrls0.wrQLenPdf::24                  1443                       # What write queue length does an incoming req see
system.mem_ctrls0.wrQLenPdf::25                  1445                       # What write queue length does an incoming req see
system.mem_ctrls0.wrQLenPdf::26                  1442                       # What write queue length does an incoming req see
system.mem_ctrls0.wrQLenPdf::27                  1442                       # What write queue length does an incoming req see
system.mem_ctrls0.wrQLenPdf::28                  1441                       # What write queue length does an incoming req see
system.mem_ctrls0.wrQLenPdf::29                  1441                       # What write queue length does an incoming req see
system.mem_ctrls0.wrQLenPdf::30                  1442                       # What write queue length does an incoming req see
system.mem_ctrls0.wrQLenPdf::31                  1440                       # What write queue length does an incoming req see
system.mem_ctrls0.wrQLenPdf::32                  1440                       # What write queue length does an incoming req see
system.mem_ctrls0.wrQLenPdf::33                     0                       # What write queue length does an incoming req see
system.mem_ctrls0.wrQLenPdf::34                     0                       # What write queue length does an incoming req see
system.mem_ctrls0.wrQLenPdf::35                     0                       # What write queue length does an incoming req see
system.mem_ctrls0.wrQLenPdf::36                     0                       # What write queue length does an incoming req see
system.mem_ctrls0.wrQLenPdf::37                     0                       # What write queue length does an incoming req see
system.mem_ctrls0.wrQLenPdf::38                     0                       # What write queue length does an incoming req see
system.mem_ctrls0.wrQLenPdf::39                     0                       # What write queue length does an incoming req see
system.mem_ctrls0.wrQLenPdf::40                     0                       # What write queue length does an incoming req see
system.mem_ctrls0.wrQLenPdf::41                     0                       # What write queue length does an incoming req see
system.mem_ctrls0.wrQLenPdf::42                     0                       # What write queue length does an incoming req see
system.mem_ctrls0.wrQLenPdf::43                     0                       # What write queue length does an incoming req see
system.mem_ctrls0.wrQLenPdf::44                     0                       # What write queue length does an incoming req see
system.mem_ctrls0.wrQLenPdf::45                     0                       # What write queue length does an incoming req see
system.mem_ctrls0.wrQLenPdf::46                     0                       # What write queue length does an incoming req see
system.mem_ctrls0.wrQLenPdf::47                     0                       # What write queue length does an incoming req see
system.mem_ctrls0.wrQLenPdf::48                     0                       # What write queue length does an incoming req see
system.mem_ctrls0.wrQLenPdf::49                     0                       # What write queue length does an incoming req see
system.mem_ctrls0.wrQLenPdf::50                     0                       # What write queue length does an incoming req see
system.mem_ctrls0.wrQLenPdf::51                     0                       # What write queue length does an incoming req see
system.mem_ctrls0.wrQLenPdf::52                     0                       # What write queue length does an incoming req see
system.mem_ctrls0.wrQLenPdf::53                     0                       # What write queue length does an incoming req see
system.mem_ctrls0.wrQLenPdf::54                     0                       # What write queue length does an incoming req see
system.mem_ctrls0.wrQLenPdf::55                     0                       # What write queue length does an incoming req see
system.mem_ctrls0.wrQLenPdf::56                     0                       # What write queue length does an incoming req see
system.mem_ctrls0.wrQLenPdf::57                     0                       # What write queue length does an incoming req see
system.mem_ctrls0.wrQLenPdf::58                     0                       # What write queue length does an incoming req see
system.mem_ctrls0.wrQLenPdf::59                     0                       # What write queue length does an incoming req see
system.mem_ctrls0.wrQLenPdf::60                     0                       # What write queue length does an incoming req see
system.mem_ctrls0.wrQLenPdf::61                     0                       # What write queue length does an incoming req see
system.mem_ctrls0.wrQLenPdf::62                     0                       # What write queue length does an incoming req see
system.mem_ctrls0.wrQLenPdf::63                     0                       # What write queue length does an incoming req see
system.mem_ctrls0.bytesPerActivate::samples       122663                       # Bytes accessed per row activation
system.mem_ctrls0.bytesPerActivate::mean   118.447193                       # Bytes accessed per row activation
system.mem_ctrls0.bytesPerActivate::gmean    90.524328                       # Bytes accessed per row activation
system.mem_ctrls0.bytesPerActivate::stdev   128.599162                       # Bytes accessed per row activation
system.mem_ctrls0.bytesPerActivate::0-127        86215     70.29%     70.29% # Bytes accessed per row activation
system.mem_ctrls0.bytesPerActivate::128-255        23258     18.96%     89.25% # Bytes accessed per row activation
system.mem_ctrls0.bytesPerActivate::256-383         6112      4.98%     94.23% # Bytes accessed per row activation
system.mem_ctrls0.bytesPerActivate::384-511         3129      2.55%     96.78% # Bytes accessed per row activation
system.mem_ctrls0.bytesPerActivate::512-639         1787      1.46%     98.24% # Bytes accessed per row activation
system.mem_ctrls0.bytesPerActivate::640-767         1042      0.85%     99.09% # Bytes accessed per row activation
system.mem_ctrls0.bytesPerActivate::768-895          568      0.46%     99.55% # Bytes accessed per row activation
system.mem_ctrls0.bytesPerActivate::896-1023          271      0.22%     99.77% # Bytes accessed per row activation
system.mem_ctrls0.bytesPerActivate::1024-1151          281      0.23%    100.00% # Bytes accessed per row activation
system.mem_ctrls0.bytesPerActivate::total       122663                       # Bytes accessed per row activation
system.mem_ctrls0.rdPerTurnAround::samples         1441                       # Reads before turning the bus around for writes
system.mem_ctrls0.rdPerTurnAround::mean    139.971548                       # Reads before turning the bus around for writes
system.mem_ctrls0.rdPerTurnAround::gmean   116.280820                       # Reads before turning the bus around for writes
system.mem_ctrls0.rdPerTurnAround::stdev   690.831786                       # Reads before turning the bus around for writes
system.mem_ctrls0.rdPerTurnAround::0-1023         1440     99.93%     99.93% # Reads before turning the bus around for writes
system.mem_ctrls0.rdPerTurnAround::25600-26623            1      0.07%    100.00% # Reads before turning the bus around for writes
system.mem_ctrls0.rdPerTurnAround::total         1441                       # Reads before turning the bus around for writes
system.mem_ctrls0.wrPerTurnAround::samples         1441                       # Writes before turning the bus around for reads
system.mem_ctrls0.wrPerTurnAround::mean     17.539903                       # Writes before turning the bus around for reads
system.mem_ctrls0.wrPerTurnAround::gmean    17.516419                       # Writes before turning the bus around for reads
system.mem_ctrls0.wrPerTurnAround::stdev     0.914374                       # Writes before turning the bus around for reads
system.mem_ctrls0.wrPerTurnAround::16             323     22.41%     22.41% # Writes before turning the bus around for reads
system.mem_ctrls0.wrPerTurnAround::17              39      2.71%     25.12% # Writes before turning the bus around for reads
system.mem_ctrls0.wrPerTurnAround::18            1069     74.18%     99.31% # Writes before turning the bus around for reads
system.mem_ctrls0.wrPerTurnAround::19               9      0.62%     99.93% # Writes before turning the bus around for reads
system.mem_ctrls0.wrPerTurnAround::31               1      0.07%    100.00% # Writes before turning the bus around for reads
system.mem_ctrls0.wrPerTurnAround::total         1441                       # Writes before turning the bus around for reads
system.mem_ctrls0.totQLat                  9233590385                       # Total ticks spent queuing
system.mem_ctrls0.totMemAccLat            13016252885                       # Total ticks spent from burst creation until serviced by the DRAM
system.mem_ctrls0.totBusLat                1008710000                       # Total ticks spent in databus transfers
system.mem_ctrls0.avgQLat                    45769.30                       # Average queueing delay per DRAM burst
system.mem_ctrls0.avgBusLat                   5000.00                       # Average bus latency per DRAM burst
system.mem_ctrls0.avgMemAccLat               64519.30                       # Average memory access latency per DRAM burst
system.mem_ctrls0.avgRdBW                       11.89                       # Average DRAM read bandwidth in MiByte/s
system.mem_ctrls0.avgWrBW                        1.49                       # Average achieved write bandwidth in MiByte/s
system.mem_ctrls0.avgRdBWSys                    11.90                       # Average system read bandwidth in MiByte/s
system.mem_ctrls0.avgWrBWSys                     1.49                       # Average system write bandwidth in MiByte/s
system.mem_ctrls0.peakBW                     12800.00                       # Theoretical peak bandwidth in MiByte/s
system.mem_ctrls0.busUtil                        0.10                       # Data bus utilization in percentage
system.mem_ctrls0.busUtilRead                    0.09                       # Data bus utilization in percentage for reads
system.mem_ctrls0.busUtilWrite                   0.01                       # Data bus utilization in percentage for writes
system.mem_ctrls0.avgRdQLen                      1.00                       # Average read queue length when enqueuing
system.mem_ctrls0.avgWrQLen                     23.83                       # Average write queue length when enqueuing
system.mem_ctrls0.readRowHits                  102011                       # Number of row buffer hits during reads
system.mem_ctrls0.writeRowHits                   2343                       # Number of row buffer hits during writes
system.mem_ctrls0.readRowHitRate                50.57                       # Row buffer hit rate for reads
system.mem_ctrls0.writeRowHitRate                9.26                       # Row buffer hit rate for writes
system.mem_ctrls0.avgGap                   4778541.45                       # Average gap between requests
system.mem_ctrls0.pageHitRate                   45.96                       # Row buffer hit rate, read and write combined
system.mem_ctrls0_0.actEnergy               435668520                       # Energy for activate commands per rank (pJ)
system.mem_ctrls0_0.preEnergy               231563310                       # Energy for precharge commands per rank (pJ)
system.mem_ctrls0_0.readEnergy              714114240                       # Energy for read commands per rank (pJ)
system.mem_ctrls0_0.writeEnergy              60713820                       # Energy for write commands per rank (pJ)
system.mem_ctrls0_0.refreshEnergy        16991722800.000004                       # Energy for refresh commands per rank (pJ)
system.mem_ctrls0_0.actBackEnergy          5555196630                       # Energy for active background per rank (pJ)
system.mem_ctrls0_0.preBackEnergy           832331520                       # Energy for precharge background per rank (pJ)
system.mem_ctrls0_0.actPowerDownEnergy    47044634790                       # Energy for active power-down per rank (pJ)
system.mem_ctrls0_0.prePowerDownEnergy    22721608320                       # Energy for precharge power-down per rank (pJ)
system.mem_ctrls0_0.selfRefreshEnergy    221148858000                       # Energy for self refresh per rank (pJ)
system.mem_ctrls0_0.totalEnergy          315742117380                       # Total energy per rank (pJ)
system.mem_ctrls0_0.averagePower           290.765953                       # Core power per rank (mW)
system.mem_ctrls0_0.totalIdleTime        1071528435195                       # Total Idle time Per DRAM Rank
system.mem_ctrls0_0.memoryStateTime::IDLE   1513361691                       # Time in different power states
system.mem_ctrls0_0.memoryStateTime::REF   7220118000                       # Time in different power states
system.mem_ctrls0_0.memoryStateTime::SREF 909196254859                       # Time in different power states
system.mem_ctrls0_0.memoryStateTime::PRE_PDN  59170864816                       # Time in different power states
system.mem_ctrls0_0.memoryStateTime::ACT   5629676590                       # Time in different power states
system.mem_ctrls0_0.memoryStateTime::ACT_PDN 103167546903                       # Time in different power states
system.mem_ctrls0_1.actEnergy               440145300                       # Energy for activate commands per rank (pJ)
system.mem_ctrls0_1.preEnergy               233942775                       # Energy for precharge commands per rank (pJ)
system.mem_ctrls0_1.readEnergy              726323640                       # Energy for read commands per rank (pJ)
system.mem_ctrls0_1.writeEnergy              71221680                       # Energy for write commands per rank (pJ)
system.mem_ctrls0_1.refreshEnergy        17416439040.000004                       # Energy for refresh commands per rank (pJ)
system.mem_ctrls0_1.actBackEnergy          5610661050                       # Energy for active background per rank (pJ)
system.mem_ctrls0_1.preBackEnergy           848988960                       # Energy for precharge background per rank (pJ)
system.mem_ctrls0_1.actPowerDownEnergy    48268660200                       # Energy for active power-down per rank (pJ)
system.mem_ctrls0_1.prePowerDownEnergy    23345117280                       # Energy for precharge power-down per rank (pJ)
system.mem_ctrls0_1.selfRefreshEnergy    220144631940                       # Energy for self refresh per rank (pJ)
system.mem_ctrls0_1.totalEnergy          317112285645                       # Total energy per rank (pJ)
system.mem_ctrls0_1.averagePower           292.027703                       # Core power per rank (mW)
system.mem_ctrls0_1.totalIdleTime        1071369635154                       # Total Idle time Per DRAM Rank
system.mem_ctrls0_1.memoryStateTime::IDLE   1541292773                       # Time in different power states
system.mem_ctrls0_1.memoryStateTime::REF   7400517132                       # Time in different power states
system.mem_ctrls0_1.memoryStateTime::SREF 904722366477                       # Time in different power states
system.mem_ctrls0_1.memoryStateTime::PRE_PDN  60794811027                       # Time in different power states
system.mem_ctrls0_1.memoryStateTime::ACT   5586377800                       # Time in different power states
system.mem_ctrls0_1.memoryStateTime::ACT_PDN 105852457650                       # Time in different power states
system.mem_ctrls1.pwrStateResidencyTicks::UNDEFINED 71110362701754                       # Cumulative time (in ticks) in various power states
system.mem_ctrls1.bytes_read::cpu.inst            128                       # Number of bytes read from this memory
system.mem_ctrls1.bytes_read::cpu.data             64                       # Number of bytes read from this memory
system.mem_ctrls1.bytes_read::switch_cpus.inst       170560                       # Number of bytes read from this memory
system.mem_ctrls1.bytes_read::switch_cpus.data     10242688                       # Number of bytes read from this memory
system.mem_ctrls1.bytes_read::switch_cpus_1.inst        51840                       # Number of bytes read from this memory
system.mem_ctrls1.bytes_read::switch_cpus_1.data      2409280                       # Number of bytes read from this memory
system.mem_ctrls1.bytes_read::total          12874560                       # Number of bytes read from this memory
system.mem_ctrls1.bytes_inst_read::cpu.inst          128                       # Number of instructions bytes read from this memory
system.mem_ctrls1.bytes_inst_read::switch_cpus.inst       170560                       # Number of instructions bytes read from this memory
system.mem_ctrls1.bytes_inst_read::switch_cpus_1.inst        51840                       # Number of instructions bytes read from this memory
system.mem_ctrls1.bytes_inst_read::total       222528                       # Number of instructions bytes read from this memory
system.mem_ctrls1.bytes_written::writebacks      1653888                       # Number of bytes written to this memory
system.mem_ctrls1.bytes_written::total        1653888                       # Number of bytes written to this memory
system.mem_ctrls1.num_reads::cpu.inst               2                       # Number of read requests responded to by this memory
system.mem_ctrls1.num_reads::cpu.data               1                       # Number of read requests responded to by this memory
system.mem_ctrls1.num_reads::switch_cpus.inst         2665                       # Number of read requests responded to by this memory
system.mem_ctrls1.num_reads::switch_cpus.data       160042                       # Number of read requests responded to by this memory
system.mem_ctrls1.num_reads::switch_cpus_1.inst          810                       # Number of read requests responded to by this memory
system.mem_ctrls1.num_reads::switch_cpus_1.data        37645                       # Number of read requests responded to by this memory
system.mem_ctrls1.num_reads::total             201165                       # Number of read requests responded to by this memory
system.mem_ctrls1.num_writes::writebacks        25842                       # Number of write requests responded to by this memory
system.mem_ctrls1.num_writes::total             25842                       # Number of write requests responded to by this memory
system.mem_ctrls1.bw_read::cpu.inst               118                       # Total read bandwidth from this memory (bytes/s)
system.mem_ctrls1.bw_read::cpu.data                59                       # Total read bandwidth from this memory (bytes/s)
system.mem_ctrls1.bw_read::switch_cpus.inst       157068                       # Total read bandwidth from this memory (bytes/s)
system.mem_ctrls1.bw_read::switch_cpus.data      9432460                       # Total read bandwidth from this memory (bytes/s)
system.mem_ctrls1.bw_read::switch_cpus_1.inst        47739                       # Total read bandwidth from this memory (bytes/s)
system.mem_ctrls1.bw_read::switch_cpus_1.data      2218699                       # Total read bandwidth from this memory (bytes/s)
system.mem_ctrls1.bw_read::total             11856143                       # Total read bandwidth from this memory (bytes/s)
system.mem_ctrls1.bw_inst_read::cpu.inst          118                       # Instruction read bandwidth from this memory (bytes/s)
system.mem_ctrls1.bw_inst_read::switch_cpus.inst       157068                       # Instruction read bandwidth from this memory (bytes/s)
system.mem_ctrls1.bw_inst_read::switch_cpus_1.inst        47739                       # Instruction read bandwidth from this memory (bytes/s)
system.mem_ctrls1.bw_inst_read::total          204925                       # Instruction read bandwidth from this memory (bytes/s)
system.mem_ctrls1.bw_write::writebacks        1523060                       # Write bandwidth from this memory (bytes/s)
system.mem_ctrls1.bw_write::total             1523060                       # Write bandwidth from this memory (bytes/s)
system.mem_ctrls1.bw_total::writebacks        1523060                       # Total bandwidth to/from this memory (bytes/s)
system.mem_ctrls1.bw_total::cpu.inst              118                       # Total bandwidth to/from this memory (bytes/s)
system.mem_ctrls1.bw_total::cpu.data               59                       # Total bandwidth to/from this memory (bytes/s)
system.mem_ctrls1.bw_total::switch_cpus.inst       157068                       # Total bandwidth to/from this memory (bytes/s)
system.mem_ctrls1.bw_total::switch_cpus.data      9432460                       # Total bandwidth to/from this memory (bytes/s)
system.mem_ctrls1.bw_total::switch_cpus_1.inst        47739                       # Total bandwidth to/from this memory (bytes/s)
system.mem_ctrls1.bw_total::switch_cpus_1.data      2218699                       # Total bandwidth to/from this memory (bytes/s)
system.mem_ctrls1.bw_total::total            13379204                       # Total bandwidth to/from this memory (bytes/s)
system.mem_ctrls1.readReqs                     201165                       # Number of read requests accepted
system.mem_ctrls1.writeReqs                     25842                       # Number of write requests accepted
system.mem_ctrls1.readBursts                   201165                       # Number of DRAM read bursts, including those serviced by the write queue
system.mem_ctrls1.writeBursts                   25842                       # Number of DRAM write bursts, including those merged in the write queue
system.mem_ctrls1.bytesReadDRAM              12860800                       # Total number of bytes read from DRAM
system.mem_ctrls1.bytesReadWrQ                  13760                       # Total number of bytes read from write queue
system.mem_ctrls1.bytesWritten                1652928                       # Total number of bytes written to DRAM
system.mem_ctrls1.bytesReadSys               12874560                       # Total read bytes from the system interface side
system.mem_ctrls1.bytesWrittenSys             1653888                       # Total written bytes from the system interface side
system.mem_ctrls1.servicedByWrQ                   215                       # Number of DRAM read bursts serviced by the write queue
system.mem_ctrls1.mergedWrBursts                    0                       # Number of DRAM write bursts merged with an existing one
system.mem_ctrls1.neitherReadNorWriteReqs            0                       # Number of requests that are neither read nor write
system.mem_ctrls1.perBankRdBursts::0            11678                       # Per bank write bursts
system.mem_ctrls1.perBankRdBursts::1            12154                       # Per bank write bursts
system.mem_ctrls1.perBankRdBursts::2            14446                       # Per bank write bursts
system.mem_ctrls1.perBankRdBursts::3            12832                       # Per bank write bursts
system.mem_ctrls1.perBankRdBursts::4            12698                       # Per bank write bursts
system.mem_ctrls1.perBankRdBursts::5            11781                       # Per bank write bursts
system.mem_ctrls1.perBankRdBursts::6            11556                       # Per bank write bursts
system.mem_ctrls1.perBankRdBursts::7            11774                       # Per bank write bursts
system.mem_ctrls1.perBankRdBursts::8            11871                       # Per bank write bursts
system.mem_ctrls1.perBankRdBursts::9            11790                       # Per bank write bursts
system.mem_ctrls1.perBankRdBursts::10           12793                       # Per bank write bursts
system.mem_ctrls1.perBankRdBursts::11           11495                       # Per bank write bursts
system.mem_ctrls1.perBankRdBursts::12           15056                       # Per bank write bursts
system.mem_ctrls1.perBankRdBursts::13           13251                       # Per bank write bursts
system.mem_ctrls1.perBankRdBursts::14           12544                       # Per bank write bursts
system.mem_ctrls1.perBankRdBursts::15           13231                       # Per bank write bursts
system.mem_ctrls1.perBankWrBursts::0             1069                       # Per bank write bursts
system.mem_ctrls1.perBankWrBursts::1             1374                       # Per bank write bursts
system.mem_ctrls1.perBankWrBursts::2             1703                       # Per bank write bursts
system.mem_ctrls1.perBankWrBursts::3             1626                       # Per bank write bursts
system.mem_ctrls1.perBankWrBursts::4             1760                       # Per bank write bursts
system.mem_ctrls1.perBankWrBursts::5             1107                       # Per bank write bursts
system.mem_ctrls1.perBankWrBursts::6             1406                       # Per bank write bursts
system.mem_ctrls1.perBankWrBursts::7             1592                       # Per bank write bursts
system.mem_ctrls1.perBankWrBursts::8             2037                       # Per bank write bursts
system.mem_ctrls1.perBankWrBursts::9             1355                       # Per bank write bursts
system.mem_ctrls1.perBankWrBursts::10            1931                       # Per bank write bursts
system.mem_ctrls1.perBankWrBursts::11            1675                       # Per bank write bursts
system.mem_ctrls1.perBankWrBursts::12            1944                       # Per bank write bursts
system.mem_ctrls1.perBankWrBursts::13            1789                       # Per bank write bursts
system.mem_ctrls1.perBankWrBursts::14            1856                       # Per bank write bursts
system.mem_ctrls1.perBankWrBursts::15            1603                       # Per bank write bursts
system.mem_ctrls1.numRdRetry                        0                       # Number of times read queue was full causing retry
system.mem_ctrls1.numWrRetry                        0                       # Number of times write queue was full causing retry
system.mem_ctrls1.totGap                 1085889107916                       # Total gap between requests
system.mem_ctrls1.readPktSize::0                    0                       # Read request sizes (log2)
system.mem_ctrls1.readPktSize::1                    0                       # Read request sizes (log2)
system.mem_ctrls1.readPktSize::2                    0                       # Read request sizes (log2)
system.mem_ctrls1.readPktSize::3                    0                       # Read request sizes (log2)
system.mem_ctrls1.readPktSize::4                    0                       # Read request sizes (log2)
system.mem_ctrls1.readPktSize::5                    0                       # Read request sizes (log2)
system.mem_ctrls1.readPktSize::6               201165                       # Read request sizes (log2)
system.mem_ctrls1.writePktSize::0                   0                       # Write request sizes (log2)
system.mem_ctrls1.writePktSize::1                   0                       # Write request sizes (log2)
system.mem_ctrls1.writePktSize::2                   0                       # Write request sizes (log2)
system.mem_ctrls1.writePktSize::3                   0                       # Write request sizes (log2)
system.mem_ctrls1.writePktSize::4                   0                       # Write request sizes (log2)
system.mem_ctrls1.writePktSize::5                   0                       # Write request sizes (log2)
system.mem_ctrls1.writePktSize::6               25842                       # Write request sizes (log2)
system.mem_ctrls1.rdQLenPdf::0                 199135                       # What read queue length does an incoming req see
system.mem_ctrls1.rdQLenPdf::1                   1762                       # What read queue length does an incoming req see
system.mem_ctrls1.rdQLenPdf::2                     49                       # What read queue length does an incoming req see
system.mem_ctrls1.rdQLenPdf::3                      4                       # What read queue length does an incoming req see
system.mem_ctrls1.rdQLenPdf::4                      0                       # What read queue length does an incoming req see
system.mem_ctrls1.rdQLenPdf::5                      0                       # What read queue length does an incoming req see
system.mem_ctrls1.rdQLenPdf::6                      0                       # What read queue length does an incoming req see
system.mem_ctrls1.rdQLenPdf::7                      0                       # What read queue length does an incoming req see
system.mem_ctrls1.rdQLenPdf::8                      0                       # What read queue length does an incoming req see
system.mem_ctrls1.rdQLenPdf::9                      0                       # What read queue length does an incoming req see
system.mem_ctrls1.rdQLenPdf::10                     0                       # What read queue length does an incoming req see
system.mem_ctrls1.rdQLenPdf::11                     0                       # What read queue length does an incoming req see
system.mem_ctrls1.rdQLenPdf::12                     0                       # What read queue length does an incoming req see
system.mem_ctrls1.rdQLenPdf::13                     0                       # What read queue length does an incoming req see
system.mem_ctrls1.rdQLenPdf::14                     0                       # What read queue length does an incoming req see
system.mem_ctrls1.rdQLenPdf::15                     0                       # What read queue length does an incoming req see
system.mem_ctrls1.rdQLenPdf::16                     0                       # What read queue length does an incoming req see
system.mem_ctrls1.rdQLenPdf::17                     0                       # What read queue length does an incoming req see
system.mem_ctrls1.rdQLenPdf::18                     0                       # What read queue length does an incoming req see
system.mem_ctrls1.rdQLenPdf::19                     0                       # What read queue length does an incoming req see
system.mem_ctrls1.rdQLenPdf::20                     0                       # What read queue length does an incoming req see
system.mem_ctrls1.rdQLenPdf::21                     0                       # What read queue length does an incoming req see
system.mem_ctrls1.rdQLenPdf::22                     0                       # What read queue length does an incoming req see
system.mem_ctrls1.rdQLenPdf::23                     0                       # What read queue length does an incoming req see
system.mem_ctrls1.rdQLenPdf::24                     0                       # What read queue length does an incoming req see
system.mem_ctrls1.rdQLenPdf::25                     0                       # What read queue length does an incoming req see
system.mem_ctrls1.rdQLenPdf::26                     0                       # What read queue length does an incoming req see
system.mem_ctrls1.rdQLenPdf::27                     0                       # What read queue length does an incoming req see
system.mem_ctrls1.rdQLenPdf::28                     0                       # What read queue length does an incoming req see
system.mem_ctrls1.rdQLenPdf::29                     0                       # What read queue length does an incoming req see
system.mem_ctrls1.rdQLenPdf::30                     0                       # What read queue length does an incoming req see
system.mem_ctrls1.rdQLenPdf::31                     0                       # What read queue length does an incoming req see
system.mem_ctrls1.wrQLenPdf::0                      2                       # What write queue length does an incoming req see
system.mem_ctrls1.wrQLenPdf::1                      2                       # What write queue length does an incoming req see
system.mem_ctrls1.wrQLenPdf::2                      2                       # What write queue length does an incoming req see
system.mem_ctrls1.wrQLenPdf::3                      2                       # What write queue length does an incoming req see
system.mem_ctrls1.wrQLenPdf::4                      2                       # What write queue length does an incoming req see
system.mem_ctrls1.wrQLenPdf::5                      2                       # What write queue length does an incoming req see
system.mem_ctrls1.wrQLenPdf::6                      2                       # What write queue length does an incoming req see
system.mem_ctrls1.wrQLenPdf::7                      2                       # What write queue length does an incoming req see
system.mem_ctrls1.wrQLenPdf::8                      2                       # What write queue length does an incoming req see
system.mem_ctrls1.wrQLenPdf::9                      2                       # What write queue length does an incoming req see
system.mem_ctrls1.wrQLenPdf::10                     2                       # What write queue length does an incoming req see
system.mem_ctrls1.wrQLenPdf::11                     2                       # What write queue length does an incoming req see
system.mem_ctrls1.wrQLenPdf::12                     2                       # What write queue length does an incoming req see
system.mem_ctrls1.wrQLenPdf::13                     2                       # What write queue length does an incoming req see
system.mem_ctrls1.wrQLenPdf::14                     2                       # What write queue length does an incoming req see
system.mem_ctrls1.wrQLenPdf::15                  1116                       # What write queue length does an incoming req see
system.mem_ctrls1.wrQLenPdf::16                  1154                       # What write queue length does an incoming req see
system.mem_ctrls1.wrQLenPdf::17                  1468                       # What write queue length does an incoming req see
system.mem_ctrls1.wrQLenPdf::18                  1473                       # What write queue length does an incoming req see
system.mem_ctrls1.wrQLenPdf::19                  1471                       # What write queue length does an incoming req see
system.mem_ctrls1.wrQLenPdf::20                  1473                       # What write queue length does an incoming req see
system.mem_ctrls1.wrQLenPdf::21                  1471                       # What write queue length does an incoming req see
system.mem_ctrls1.wrQLenPdf::22                  1473                       # What write queue length does an incoming req see
system.mem_ctrls1.wrQLenPdf::23                  1472                       # What write queue length does an incoming req see
system.mem_ctrls1.wrQLenPdf::24                  1472                       # What write queue length does an incoming req see
system.mem_ctrls1.wrQLenPdf::25                  1473                       # What write queue length does an incoming req see
system.mem_ctrls1.wrQLenPdf::26                  1472                       # What write queue length does an incoming req see
system.mem_ctrls1.wrQLenPdf::27                  1470                       # What write queue length does an incoming req see
system.mem_ctrls1.wrQLenPdf::28                  1472                       # What write queue length does an incoming req see
system.mem_ctrls1.wrQLenPdf::29                  1470                       # What write queue length does an incoming req see
system.mem_ctrls1.wrQLenPdf::30                  1471                       # What write queue length does an incoming req see
system.mem_ctrls1.wrQLenPdf::31                  1470                       # What write queue length does an incoming req see
system.mem_ctrls1.wrQLenPdf::32                  1470                       # What write queue length does an incoming req see
system.mem_ctrls1.wrQLenPdf::33                     1                       # What write queue length does an incoming req see
system.mem_ctrls1.wrQLenPdf::34                     0                       # What write queue length does an incoming req see
system.mem_ctrls1.wrQLenPdf::35                     0                       # What write queue length does an incoming req see
system.mem_ctrls1.wrQLenPdf::36                     0                       # What write queue length does an incoming req see
system.mem_ctrls1.wrQLenPdf::37                     0                       # What write queue length does an incoming req see
system.mem_ctrls1.wrQLenPdf::38                     0                       # What write queue length does an incoming req see
system.mem_ctrls1.wrQLenPdf::39                     0                       # What write queue length does an incoming req see
system.mem_ctrls1.wrQLenPdf::40                     0                       # What write queue length does an incoming req see
system.mem_ctrls1.wrQLenPdf::41                     0                       # What write queue length does an incoming req see
system.mem_ctrls1.wrQLenPdf::42                     0                       # What write queue length does an incoming req see
system.mem_ctrls1.wrQLenPdf::43                     0                       # What write queue length does an incoming req see
system.mem_ctrls1.wrQLenPdf::44                     0                       # What write queue length does an incoming req see
system.mem_ctrls1.wrQLenPdf::45                     0                       # What write queue length does an incoming req see
system.mem_ctrls1.wrQLenPdf::46                     0                       # What write queue length does an incoming req see
system.mem_ctrls1.wrQLenPdf::47                     0                       # What write queue length does an incoming req see
system.mem_ctrls1.wrQLenPdf::48                     0                       # What write queue length does an incoming req see
system.mem_ctrls1.wrQLenPdf::49                     0                       # What write queue length does an incoming req see
system.mem_ctrls1.wrQLenPdf::50                     0                       # What write queue length does an incoming req see
system.mem_ctrls1.wrQLenPdf::51                     0                       # What write queue length does an incoming req see
system.mem_ctrls1.wrQLenPdf::52                     0                       # What write queue length does an incoming req see
system.mem_ctrls1.wrQLenPdf::53                     0                       # What write queue length does an incoming req see
system.mem_ctrls1.wrQLenPdf::54                     0                       # What write queue length does an incoming req see
system.mem_ctrls1.wrQLenPdf::55                     0                       # What write queue length does an incoming req see
system.mem_ctrls1.wrQLenPdf::56                     0                       # What write queue length does an incoming req see
system.mem_ctrls1.wrQLenPdf::57                     0                       # What write queue length does an incoming req see
system.mem_ctrls1.wrQLenPdf::58                     0                       # What write queue length does an incoming req see
system.mem_ctrls1.wrQLenPdf::59                     0                       # What write queue length does an incoming req see
system.mem_ctrls1.wrQLenPdf::60                     0                       # What write queue length does an incoming req see
system.mem_ctrls1.wrQLenPdf::61                     0                       # What write queue length does an incoming req see
system.mem_ctrls1.wrQLenPdf::62                     0                       # What write queue length does an incoming req see
system.mem_ctrls1.wrQLenPdf::63                     0                       # What write queue length does an incoming req see
system.mem_ctrls1.bytesPerActivate::samples       122802                       # Bytes accessed per row activation
system.mem_ctrls1.bytesPerActivate::mean   118.188043                       # Bytes accessed per row activation
system.mem_ctrls1.bytesPerActivate::gmean    90.370328                       # Bytes accessed per row activation
system.mem_ctrls1.bytesPerActivate::stdev   128.254676                       # Bytes accessed per row activation
system.mem_ctrls1.bytesPerActivate::0-127        86488     70.43%     70.43% # Bytes accessed per row activation
system.mem_ctrls1.bytesPerActivate::128-255        23163     18.86%     89.29% # Bytes accessed per row activation
system.mem_ctrls1.bytesPerActivate::256-383         6109      4.97%     94.27% # Bytes accessed per row activation
system.mem_ctrls1.bytesPerActivate::384-511         3110      2.53%     96.80% # Bytes accessed per row activation
system.mem_ctrls1.bytesPerActivate::512-639         1723      1.40%     98.20% # Bytes accessed per row activation
system.mem_ctrls1.bytesPerActivate::640-767         1072      0.87%     99.07% # Bytes accessed per row activation
system.mem_ctrls1.bytesPerActivate::768-895          633      0.52%     99.59% # Bytes accessed per row activation
system.mem_ctrls1.bytesPerActivate::896-1023          232      0.19%     99.78% # Bytes accessed per row activation
system.mem_ctrls1.bytesPerActivate::1024-1151          272      0.22%    100.00% # Bytes accessed per row activation
system.mem_ctrls1.bytesPerActivate::total       122802                       # Bytes accessed per row activation
system.mem_ctrls1.rdPerTurnAround::samples         1471                       # Reads before turning the bus around for writes
system.mem_ctrls1.rdPerTurnAround::mean    136.606390                       # Reads before turning the bus around for writes
system.mem_ctrls1.rdPerTurnAround::gmean   113.479816                       # Reads before turning the bus around for writes
system.mem_ctrls1.rdPerTurnAround::stdev   707.513632                       # Reads before turning the bus around for writes
system.mem_ctrls1.rdPerTurnAround::0-1023         1470     99.93%     99.93% # Reads before turning the bus around for writes
system.mem_ctrls1.rdPerTurnAround::26624-27647            1      0.07%    100.00% # Reads before turning the bus around for writes
system.mem_ctrls1.rdPerTurnAround::total         1471                       # Reads before turning the bus around for writes
system.mem_ctrls1.wrPerTurnAround::samples         1471                       # Writes before turning the bus around for reads
system.mem_ctrls1.wrPerTurnAround::mean     17.557444                       # Writes before turning the bus around for reads
system.mem_ctrls1.wrPerTurnAround::gmean    17.535692                       # Writes before turning the bus around for reads
system.mem_ctrls1.wrPerTurnAround::stdev     0.866181                       # Writes before turning the bus around for reads
system.mem_ctrls1.wrPerTurnAround::16             316     21.48%     21.48% # Writes before turning the bus around for reads
system.mem_ctrls1.wrPerTurnAround::17              37      2.52%     24.00% # Writes before turning the bus around for reads
system.mem_ctrls1.wrPerTurnAround::18            1108     75.32%     99.32% # Writes before turning the bus around for reads
system.mem_ctrls1.wrPerTurnAround::19               9      0.61%     99.93% # Writes before turning the bus around for reads
system.mem_ctrls1.wrPerTurnAround::27               1      0.07%    100.00% # Writes before turning the bus around for reads
system.mem_ctrls1.wrPerTurnAround::total         1471                       # Writes before turning the bus around for reads
system.mem_ctrls1.totQLat                  9259520499                       # Total ticks spent queuing
system.mem_ctrls1.totMemAccLat            13027332999                       # Total ticks spent from burst creation until serviced by the DRAM
system.mem_ctrls1.totBusLat                1004750000                       # Total ticks spent in databus transfers
system.mem_ctrls1.avgQLat                    46078.73                       # Average queueing delay per DRAM burst
system.mem_ctrls1.avgBusLat                   5000.00                       # Average bus latency per DRAM burst
system.mem_ctrls1.avgMemAccLat               64828.73                       # Average memory access latency per DRAM burst
system.mem_ctrls1.avgRdBW                       11.84                       # Average DRAM read bandwidth in MiByte/s
system.mem_ctrls1.avgWrBW                        1.52                       # Average achieved write bandwidth in MiByte/s
system.mem_ctrls1.avgRdBWSys                    11.86                       # Average system read bandwidth in MiByte/s
system.mem_ctrls1.avgWrBWSys                     1.52                       # Average system write bandwidth in MiByte/s
system.mem_ctrls1.peakBW                     12800.00                       # Theoretical peak bandwidth in MiByte/s
system.mem_ctrls1.busUtil                        0.10                       # Data bus utilization in percentage
system.mem_ctrls1.busUtilRead                    0.09                       # Data bus utilization in percentage for reads
system.mem_ctrls1.busUtilWrite                   0.01                       # Data bus utilization in percentage for writes
system.mem_ctrls1.avgRdQLen                      1.00                       # Average read queue length when enqueuing
system.mem_ctrls1.avgWrQLen                     24.07                       # Average write queue length when enqueuing
system.mem_ctrls1.readRowHits                  101745                       # Number of row buffer hits during reads
system.mem_ctrls1.writeRowHits                   2230                       # Number of row buffer hits during writes
system.mem_ctrls1.readRowHitRate                50.63                       # Row buffer hit rate for reads
system.mem_ctrls1.writeRowHitRate                8.63                       # Row buffer hit rate for writes
system.mem_ctrls1.avgGap                   4783504.95                       # Average gap between requests
system.mem_ctrls1.pageHitRate                   45.85                       # Row buffer hit rate, read and write combined
system.mem_ctrls1_0.actEnergy               432219900                       # Energy for activate commands per rank (pJ)
system.mem_ctrls1_0.preEnergy               229730325                       # Energy for precharge commands per rank (pJ)
system.mem_ctrls1_0.readEnergy              706281660                       # Energy for read commands per rank (pJ)
system.mem_ctrls1_0.writeEnergy              60745140                       # Energy for write commands per rank (pJ)
system.mem_ctrls1_0.refreshEnergy        17130631440.000004                       # Energy for refresh commands per rank (pJ)
system.mem_ctrls1_0.actBackEnergy          5543720820                       # Energy for active background per rank (pJ)
system.mem_ctrls1_0.preBackEnergy           849314400                       # Energy for precharge background per rank (pJ)
system.mem_ctrls1_0.actPowerDownEnergy    47116453650                       # Energy for active power-down per rank (pJ)
system.mem_ctrls1_0.prePowerDownEnergy    22943526720                       # Energy for precharge power-down per rank (pJ)
system.mem_ctrls1_0.selfRefreshEnergy    221044429140                       # Energy for self refresh per rank (pJ)
system.mem_ctrls1_0.totalEnergy          316062472455                       # Total energy per rank (pJ)
system.mem_ctrls1_0.averagePower           291.060968                       # Core power per rank (mW)
system.mem_ctrls1_0.totalIdleTime        1071515248003                       # Total Idle time Per DRAM Rank
system.mem_ctrls1_0.memoryStateTime::IDLE   1551424601                       # Time in different power states
system.mem_ctrls1_0.memoryStateTime::REF   7279796000                       # Time in different power states
system.mem_ctrls1_0.memoryStateTime::SREF 908442388449                       # Time in different power states
system.mem_ctrls1_0.memoryStateTime::PRE_PDN  59748777756                       # Time in different power states
system.mem_ctrls1_0.memoryStateTime::ACT   5549409345                       # Time in different power states
system.mem_ctrls1_0.memoryStateTime::ACT_PDN 103326026708                       # Time in different power states
system.mem_ctrls1_1.actEnergy               444586380                       # Energy for activate commands per rank (pJ)
system.mem_ctrls1_1.preEnergy               236303265                       # Energy for precharge commands per rank (pJ)
system.mem_ctrls1_1.readEnergy              728501340                       # Energy for read commands per rank (pJ)
system.mem_ctrls1_1.writeEnergy              74071800                       # Energy for write commands per rank (pJ)
system.mem_ctrls1_1.refreshEnergy        17364809280.000004                       # Energy for refresh commands per rank (pJ)
system.mem_ctrls1_1.actBackEnergy          5662166820                       # Energy for active background per rank (pJ)
system.mem_ctrls1_1.preBackEnergy           849476160                       # Energy for precharge background per rank (pJ)
system.mem_ctrls1_1.actPowerDownEnergy    47973604830                       # Energy for active power-down per rank (pJ)
system.mem_ctrls1_1.prePowerDownEnergy    23248967040                       # Energy for precharge power-down per rank (pJ)
system.mem_ctrls1_1.selfRefreshEnergy    220342134495                       # Energy for self refresh per rank (pJ)
system.mem_ctrls1_1.totalEnergy          316930170300                       # Total energy per rank (pJ)
system.mem_ctrls1_1.averagePower           291.860029                       # Core power per rank (mW)
system.mem_ctrls1_1.totalIdleTime        1071251143075                       # Total Idle time Per DRAM Rank
system.mem_ctrls1_1.memoryStateTime::IDLE   1544776604                       # Time in different power states
system.mem_ctrls1_1.memoryStateTime::REF   7378880000                       # Time in different power states
system.mem_ctrls1_1.memoryStateTime::SREF 905506786859                       # Time in different power states
system.mem_ctrls1_1.memoryStateTime::PRE_PDN  60544355620                       # Time in different power states
system.mem_ctrls1_1.memoryStateTime::ACT   5718219035                       # Time in different power states
system.mem_ctrls1_1.memoryStateTime::ACT_PDN 105204804741                       # Time in different power states
system.pwrStateResidencyTicks::UNDEFINED 71110362701754                       # Cumulative time (in ticks) in various power states
system.cpu.branchPred.lookups                       6                       # Number of BP lookups
system.cpu.branchPred.condPredicted                 2                       # Number of conditional branches predicted
system.cpu.branchPred.condIncorrect                 2                       # Number of conditional branches incorrect
system.cpu.branchPred.BTBLookups                    3                       # Number of BTB lookups
system.cpu.branchPred.BTBHits                       0                       # Number of BTB hits
system.cpu.branchPred.BTBCorrect                    0                       # Number of correct BTB predictions (this stat may not work properly.
system.cpu.branchPred.BTBHitPct              0.000000                       # BTB Hit Percentage
system.cpu.branchPred.usedRAS                       1                       # Number of times the RAS was used to get a target.
system.cpu.branchPred.RASInCorrect                  1                       # Number of incorrect RAS predictions.
system.cpu.branchPred.indirectLookups               0                       # Number of indirect predictor lookups.
system.cpu.branchPred.indirectHits                  0                       # Number of indirect target hits.
system.cpu.branchPred.indirectMisses                0                       # Number of indirect misses.
system.cpu.branchPredindirectMispredicted            0                       # Number of mispredicted indirect branches.
system.cpu_voltage_domain.voltage                   1                       # Voltage in Volts
system.cpu_clk_domain.clock                       333                       # Clock period in ticks
system.cpu.dtb.fetch_hits                           0                       # ITB hits
system.cpu.dtb.fetch_misses                         0                       # ITB misses
system.cpu.dtb.fetch_acv                            0                       # ITB acv
system.cpu.dtb.fetch_accesses                       0                       # ITB accesses
system.cpu.dtb.read_hits                            8                       # DTB read hits
system.cpu.dtb.read_misses                          0                       # DTB read misses
system.cpu.dtb.read_acv                             0                       # DTB read access violations
system.cpu.dtb.read_accesses                        8                       # DTB read accesses
system.cpu.dtb.write_hits                           1                       # DTB write hits
system.cpu.dtb.write_misses                         0                       # DTB write misses
system.cpu.dtb.write_acv                            0                       # DTB write access violations
system.cpu.dtb.write_accesses                       1                       # DTB write accesses
system.cpu.dtb.data_hits                            9                       # DTB hits
system.cpu.dtb.data_misses                          0                       # DTB misses
system.cpu.dtb.data_acv                             0                       # DTB access violations
system.cpu.dtb.data_accesses                        9                       # DTB accesses
system.cpu.itb.fetch_hits                           4                       # ITB hits
system.cpu.itb.fetch_misses                         1                       # ITB misses
system.cpu.itb.fetch_acv                            0                       # ITB acv
system.cpu.itb.fetch_accesses                       5                       # ITB accesses
system.cpu.itb.read_hits                            0                       # DTB read hits
system.cpu.itb.read_misses                          0                       # DTB read misses
system.cpu.itb.read_acv                             0                       # DTB read access violations
system.cpu.itb.read_accesses                        0                       # DTB read accesses
system.cpu.itb.write_hits                           0                       # DTB write hits
system.cpu.itb.write_misses                         0                       # DTB write misses
system.cpu.itb.write_acv                            0                       # DTB write access violations
system.cpu.itb.write_accesses                       0                       # DTB write accesses
system.cpu.itb.data_hits                            0                       # DTB hits
system.cpu.itb.data_misses                          0                       # DTB misses
system.cpu.itb.data_acv                             0                       # DTB access violations
system.cpu.itb.data_accesses                        0                       # DTB accesses
system.cpu.workload.num_syscalls                   33                       # Number of system calls
system.cpu.pwrStateResidencyTicks::ON    1085897822859                       # Cumulative time (in ticks) in various power states
system.cpu.numCycles                             1087                       # number of cpu cycles simulated
system.cpu.numWorkItemsStarted                      0                       # number of work items this cpu started
system.cpu.numWorkItemsCompleted                    0                       # number of work items this cpu completed
system.cpu.fetch.icacheStallCycles                 28                       # Number of cycles fetch is stalled on an Icache miss
system.cpu.fetch.Insts                             24                       # Number of instructions fetch has processed
system.cpu.fetch.Branches                           6                       # Number of branches that fetch encountered
system.cpu.fetch.predictedBranches                  1                       # Number of branches that fetch has predicted taken
system.cpu.fetch.Cycles                             4                       # Number of cycles fetch has run and was not squashing or blocked
system.cpu.fetch.SquashCycles                       7                       # Number of cycles fetch has spent squashing
system.cpu.fetch.PendingDrainCycles                 6                       # Number of cycles fetch has spent waiting on pipes to drain
system.cpu.fetch.PendingTrapStallCycles            27                       # Number of stall cycles due to pending traps
system.cpu.fetch.CacheLines                         4                       # Number of cache lines fetched
system.cpu.fetch.IcacheSquashes                     2                       # Number of outstanding Icache misses that were squashed
system.cpu.fetch.rateDist::samples                 68                       # Number of instructions fetched each cycle (Total)
system.cpu.fetch.rateDist::mean              0.352941                       # Number of instructions fetched each cycle (Total)
system.cpu.fetch.rateDist::stdev             1.543061                       # Number of instructions fetched each cycle (Total)
system.cpu.fetch.rateDist::underflows               0      0.00%      0.00% # Number of instructions fetched each cycle (Total)
system.cpu.fetch.rateDist::0                       64     94.12%     94.12% # Number of instructions fetched each cycle (Total)
system.cpu.fetch.rateDist::1                        0      0.00%     94.12% # Number of instructions fetched each cycle (Total)
system.cpu.fetch.rateDist::2                        1      1.47%     95.59% # Number of instructions fetched each cycle (Total)
system.cpu.fetch.rateDist::3                        0      0.00%     95.59% # Number of instructions fetched each cycle (Total)
system.cpu.fetch.rateDist::4                        0      0.00%     95.59% # Number of instructions fetched each cycle (Total)
system.cpu.fetch.rateDist::5                        0      0.00%     95.59% # Number of instructions fetched each cycle (Total)
system.cpu.fetch.rateDist::6                        1      1.47%     97.06% # Number of instructions fetched each cycle (Total)
system.cpu.fetch.rateDist::7                        0      0.00%     97.06% # Number of instructions fetched each cycle (Total)
[...]
system.switch_cpus_1.iq.int_inst_queue_wakeup_accesses    219466479                       # Number of integer instruction queue wakeup accesses
system.switch_cpus_1.iq.fp_inst_queue_reads       221242                       # Number of floating instruction queue reads
system.switch_cpus_1.iq.fp_inst_queue_writes       175393                       # Number of floating instruction queue writes
system.switch_cpus_1.iq.fp_inst_queue_wakeup_accesses        97159                       # Number of floating instruction queue wakeup accesses
system.switch_cpus_1.iq.int_alu_accesses    230411430                       # Number of integer alu accesses
system.switch_cpus_1.iq.fp_alu_accesses        113948                       # Number of floating point alu accesses
system.switch_cpus_1.iew.lsq.thread0.forwLoads      5904903                       # Number of loads that had data forwarded from stores
system.switch_cpus_1.iew.lsq.thread0.invAddrLoads            0                       # Number of loads ignored due to an invalid address
system.switch_cpus_1.iew.lsq.thread0.squashedLoads     10797687                       # Number of loads squashed
system.switch_cpus_1.iew.lsq.thread0.ignoredResponses        24093                       # Number of memory responses ignored because the instruction is squashed
system.switch_cpus_1.iew.lsq.thread0.memOrderViolation        46858                       # Number of memory ordering violations
system.switch_cpus_1.iew.lsq.thread0.squashedStores      4620825                       # Number of stores squashed
system.switch_cpus_1.iew.lsq.thread0.invAddrSwpfs            0                       # Number of software prefetches ignored due to an invalid address
system.switch_cpus_1.iew.lsq.thread0.blockedLoads            0                       # Number of blocked loads due to partial load-store forwarding
system.switch_cpus_1.iew.lsq.thread0.rescheduledLoads           29                       # Number of loads that were rescheduled
system.switch_cpus_1.iew.lsq.thread0.cacheBlocked        43637                       # Number of times an access to memory failed due to the cache being blocked
system.switch_cpus_1.iew.iewIdleCycles              0                       # Number of cycles IEW is idle
system.switch_cpus_1.iew.iewSquashCycles      1356457                       # Number of cycles IEW is squashing
system.switch_cpus_1.iew.iewBlockCycles      13900904                       # Number of cycles IEW is blocking
system.switch_cpus_1.iew.iewUnblockCycles     10136952                       # Number of cycles IEW is unblocking
system.switch_cpus_1.iew.iewDispatchedInsts    243039256                       # Number of instructions dispatched to IQ
system.switch_cpus_1.iew.iewDispSquashedInsts       711082                       # Number of squashed instructions skipped by dispatch
system.switch_cpus_1.iew.iewDispLoadInsts     71447039                       # Number of dispatched load instructions
system.switch_cpus_1.iew.iewDispStoreInsts     31902763                       # Number of dispatched store instructions
system.switch_cpus_1.iew.iewDispNonSpecInsts        39879                       # Number of dispatched non-speculative instructions
system.switch_cpus_1.iew.iewIQFullEvents       109912                       # Number of times the IQ has become full, causing a stall
system.switch_cpus_1.iew.iewLSQFullEvents     10048906                       # Number of times the LSQ has become full, causing a stall
system.switch_cpus_1.iew.memOrderViolationEvents        46858                       # Number of memory order violations
system.switch_cpus_1.iew.predictedTakenIncorrect       697253                       # Number of branches that were predicted taken incorrectly
system.switch_cpus_1.iew.predictedNotTakenIncorrect       490811                       # Number of branches that were predicted not taken incorrectly
system.switch_cpus_1.iew.branchMispredicts      1188064                       # Number of branch mispredicts detected at execute
system.switch_cpus_1.iew.iewExecutedInsts    221493545                       # Number of executed instructions
system.switch_cpus_1.iew.iewExecLoadInsts     67091565                       # Number of load instructions executed
system.switch_cpus_1.iew.iewExecSquashedInsts      1825657                       # Number of squashed instructions skipped in execute
system.switch_cpus_1.iew.exec_swp                   0                       # number of swp insts executed
system.switch_cpus_1.iew.exec_nop             5423808                       # number of nop insts executed
system.switch_cpus_1.iew.exec_refs           97121408                       # number of memory reference insts executed
system.switch_cpus_1.iew.exec_branches       37151427                       # Number of branches executed
system.switch_cpus_1.iew.exec_stores         30029843                       # Number of stores executed
system.switch_cpus_1.iew.exec_rate           1.564355                       # Inst execution rate
system.switch_cpus_1.iew.wb_sent            220688988                       # cumulative count of insts sent to commit
system.switch_cpus_1.iew.wb_count           219563638                       # cumulative count of insts written-back
system.switch_cpus_1.iew.wb_producers       124696040                       # num instructions producing a value
system.switch_cpus_1.iew.wb_consumers       155272705                       # num instructions consuming a value
system.switch_cpus_1.iew.wb_rate             1.550724                       # insts written-back per cycle
system.switch_cpus_1.iew.wb_fanout           0.803078                       # average fanout of values written-back
system.switch_cpus_1.commit.commitSquashedInsts     34147974                       # The number of squashed insts skipped by commit
system.switch_cpus_1.commit.commitNonSpecStalls        56727                       # The number of times commit has been forced to stall to communicate backwards
system.switch_cpus_1.commit.branchMispredicts      1074809                       # The number of times a branch was mispredicted
system.switch_cpus_1.commit.committed_per_cycle::samples    130118354                       # Number of insts commited each cycle
system.switch_cpus_1.commit.committed_per_cycle::mean     1.571016                       # Number of insts commited each cycle
system.switch_cpus_1.commit.committed_per_cycle::stdev     2.501978                       # Number of insts commited each cycle
system.switch_cpus_1.commit.committed_per_cycle::underflows            0      0.00%      0.00% # Number of insts commited each cycle
system.switch_cpus_1.commit.committed_per_cycle::0     69658962     53.54%     53.54% # Number of insts commited each cycle
system.switch_cpus_1.commit.committed_per_cycle::1     25194905     19.36%     72.90% # Number of insts commited each cycle
system.switch_cpus_1.commit.committed_per_cycle::2      8603032      6.61%     79.51% # Number of insts commited each cycle
system.switch_cpus_1.commit.committed_per_cycle::3      3423731      2.63%     82.14% # Number of insts commited each cycle
system.switch_cpus_1.commit.committed_per_cycle::4      3550129      2.73%     84.87% # Number of insts commited each cycle
system.switch_cpus_1.commit.committed_per_cycle::5      3407063      2.62%     87.49% # Number of insts commited each cycle
system.switch_cpus_1.commit.committed_per_cycle::6      3665590      2.82%     90.31% # Number of insts commited each cycle
system.switch_cpus_1.commit.committed_per_cycle::7      2403034      1.85%     92.15% # Number of insts commited each cycle
system.switch_cpus_1.commit.committed_per_cycle::8     10211908      7.85%    100.00% # Number of insts commited each cycle
system.switch_cpus_1.commit.committed_per_cycle::overflows            0      0.00%    100.00% # Number of insts commited each cycle
system.switch_cpus_1.commit.committed_per_cycle::min_value            0                       # Number of insts commited each cycle
system.switch_cpus_1.commit.committed_per_cycle::max_value            8                       # Number of insts commited each cycle
system.switch_cpus_1.commit.committed_per_cycle::total    130118354                       # Number of insts commited each cycle
system.switch_cpus_1.commit.committedInsts    204418035                       # Number of instructions committed
system.switch_cpus_1.commit.committedOps    204418035                       # Number of ops (including micro ops) committed
system.switch_cpus_1.commit.swp_count               0                       # Number of s/w prefetches committed
system.switch_cpus_1.commit.refs             87931281                       # Number of memory references committed
system.switch_cpus_1.commit.loads            60649345                       # Number of loads committed
system.switch_cpus_1.commit.membars             28362                       # Number of memory barriers committed
system.switch_cpus_1.commit.branches         33506634                       # Number of branches committed
system.switch_cpus_1.commit.fp_insts            57347                       # Number of committed floating point instructions.
system.switch_cpus_1.commit.int_insts       196341282                       # Number of committed integer instructions.
system.switch_cpus_1.commit.function_calls      1796443                       # Number of function calls committed.
system.switch_cpus_1.commit.op_class_0::No_OpClass      4418302      2.16%      2.16% # Class of committed instruction
system.switch_cpus_1.commit.op_class_0::IntAlu    112019812     54.80%     56.96% # Class of committed instruction
system.switch_cpus_1.commit.op_class_0::IntMult         2349      0.00%     56.96% # Class of committed instruction
system.switch_cpus_1.commit.op_class_0::IntDiv            0      0.00%     56.96% # Class of committed instruction
system.switch_cpus_1.commit.op_class_0::FloatAdd        15226      0.01%     56.97% # Class of committed instruction
system.switch_cpus_1.commit.op_class_0::FloatCmp         1115      0.00%     56.97% # Class of committed instruction
system.switch_cpus_1.commit.op_class_0::FloatCvt         1402      0.00%     56.97% # Class of committed instruction
system.switch_cpus_1.commit.op_class_0::FloatMult           38      0.00%     56.97% # Class of committed instruction
system.switch_cpus_1.commit.op_class_0::FloatMultAcc            0      0.00%     56.97% # Class of committed instruction
system.switch_cpus_1.commit.op_class_0::FloatDiv          148      0.00%     56.97% # Class of committed instruction
system.switch_cpus_1.commit.op_class_0::FloatMisc            0      0.00%     56.97% # Class of committed instruction
system.switch_cpus_1.commit.op_class_0::FloatSqrt            0      0.00%     56.97% # Class of committed instruction
system.switch_cpus_1.commit.op_class_0::SimdAdd            0      0.00%     56.97% # Class of committed instruction
system.switch_cpus_1.commit.op_class_0::SimdAddAcc            0      0.00%     56.97% # Class of committed instruction
system.switch_cpus_1.commit.op_class_0::SimdAlu            0      0.00%     56.97% # Class of committed instruction
system.switch_cpus_1.commit.op_class_0::SimdCmp            0      0.00%     56.97% # Class of committed instruction
system.switch_cpus_1.commit.op_class_0::SimdCvt            0      0.00%     56.97% # Class of committed instruction
system.switch_cpus_1.commit.op_class_0::SimdMisc            0      0.00%     56.97% # Class of committed instruction
system.switch_cpus_1.commit.op_class_0::SimdMult            0      0.00%     56.97% # Class of committed instruction
system.switch_cpus_1.commit.op_class_0::SimdMultAcc            0      0.00%     56.97% # Class of committed instruction
system.switch_cpus_1.commit.op_class_0::SimdShift            0      0.00%     56.97% # Class of committed instruction
system.switch_cpus_1.commit.op_class_0::SimdShiftAcc            0      0.00%     56.97% # Class of committed instruction
system.switch_cpus_1.commit.op_class_0::SimdSqrt            0      0.00%     56.97% # Class of committed instruction
system.switch_cpus_1.commit.op_class_0::SimdFloatAdd            0      0.00%     56.97% # Class of committed instruction
system.switch_cpus_1.commit.op_class_0::SimdFloatAlu            0      0.00%     56.97% # Class of committed instruction
system.switch_cpus_1.commit.op_class_0::SimdFloatCmp            0      0.00%     56.97% # Class of committed instruction
system.switch_cpus_1.commit.op_class_0::SimdFloatCvt            0      0.00%     56.97% # Class of committed instruction
system.switch_cpus_1.commit.op_class_0::SimdFloatDiv            0      0.00%     56.97% # Class of committed instruction
system.switch_cpus_1.commit.op_class_0::SimdFloatMisc            0      0.00%     56.97% # Class of committed instruction
system.switch_cpus_1.commit.op_class_0::SimdFloatMult            0      0.00%     56.97% # Class of committed instruction
system.switch_cpus_1.commit.op_class_0::SimdFloatMultAcc            0      0.00%     56.97% # Class of committed instruction
system.switch_cpus_1.commit.op_class_0::SimdFloatSqrt            0      0.00%     56.97% # Class of committed instruction
system.switch_cpus_1.commit.op_class_0::MemRead     60659262     29.67%     86.64% # Class of committed instruction
system.switch_cpus_1.commit.op_class_0::MemWrite     27260963     13.34%     99.98% # Class of committed instruction
system.switch_cpus_1.commit.op_class_0::FloatMemRead        18445      0.01%     99.99% # Class of committed instruction
system.switch_cpus_1.commit.op_class_0::FloatMemWrite        20973      0.01%    100.00% # Class of committed instruction
system.switch_cpus_1.commit.op_class_0::IprAccess            0      0.00%    100.00% # Class of committed instruction
system.switch_cpus_1.commit.op_class_0::InstPrefetch            0      0.00%    100.00% # Class of committed instruction
system.switch_cpus_1.commit.op_class_0::total    204418035                       # Class of committed instruction
system.switch_cpus_1.commit.bw_lim_events     10211908                       # number cycles where commit BW limit reached
system.switch_cpus_1.rob.rob_reads          355280825                       # The number of ROB reads
system.switch_cpus_1.rob.rob_writes         482326256                       # The number of ROB writes
system.switch_cpus_1.timesIdled                421608                       # Number of times that the entire CPU went into an idle state and unscheduled itself
system.switch_cpus_1.idleCycles               6302866                       # Total number of cycles that the CPU has spent unscheduled due to idling
system.switch_cpus_1.committedInsts         200000002                       # Number of Instructions Simulated
system.switch_cpus_1.committedOps           200000002                       # Number of Ops (including micro ops) Simulated
system.switch_cpus_1.cpi                     0.707939                       # CPI: Cycles Per Instruction
system.switch_cpus_1.cpi_total               0.707939                       # CPI: Total CPI of All Threads
system.switch_cpus_1.ipc                     1.412551                       # IPC: Instructions Per Cycle
system.switch_cpus_1.ipc_total               1.412551                       # IPC: Total IPC of All Threads
system.switch_cpus_1.int_regfile_reads      285748848                       # number of integer regfile reads
system.switch_cpus_1.int_regfile_writes     155124472                       # number of integer regfile writes
system.switch_cpus_1.fp_regfile_reads           92480                       # number of floating regfile reads
system.switch_cpus_1.fp_regfile_writes          53039                       # number of floating regfile writes
system.switch_cpus_1.misc_regfile_reads         65101                       # number of misc regfile reads
system.switch_cpus_1.misc_regfile_writes        56856                       # number of misc regfile writes
system.tol3bus.snoop_filter.tot_requests      2229045                       # Total number of requests made to the snoop filter.
system.tol3bus.snoop_filter.hit_single_requests      1112617                       # Number of requests hitting in the snoop filter with a single holder of the requested data.
system.tol3bus.snoop_filter.hit_multi_requests            0                       # Number of requests hitting in the snoop filter with multiple (>1) holders of the requested data.
system.tol3bus.snoop_filter.tot_snoops           3742                       # Total number of snoops made to the snoop filter.
system.tol3bus.snoop_filter.hit_single_snoops         3742                       # Number of snoops hitting in the snoop filter with a single holder of the requested data.
system.tol3bus.snoop_filter.hit_multi_snoops            0                       # Number of snoops hitting in the snoop filter with multiple (>1) holders of the requested data.
system.tol3bus.pwrStateResidencyTicks::UNDEFINED 71110362701754                       # Cumulative time (in ticks) in various power states
system.tol3bus.trans_dist::ReadResp           1037621                       # Transaction distribution
system.tol3bus.trans_dist::WritebackDirty       292458                       # Transaction distribution
system.tol3bus.trans_dist::CleanEvict         1158216                       # Transaction distribution
system.tol3bus.trans_dist::UpgradeReq               8                       # Transaction distribution
system.tol3bus.trans_dist::UpgradeResp              8                       # Transaction distribution
system.tol3bus.trans_dist::ReadExReq            78807                       # Transaction distribution
system.tol3bus.trans_dist::ReadExResp           78807                       # Transaction distribution
system.tol3bus.trans_dist::ReadSharedReq      1037621                       # Transaction distribution
system.tol3bus.pkt_count_system.cpu.l2.mem_side::system.l3.cpu_side      3345481                       # Packet count per connected master and slave (bytes)
system.tol3bus.pkt_size_system.cpu.l2.mem_side::system.l3.cpu_side     86895552                       # Cumulative packet size per connected master and slave (bytes)
system.tol3bus.snoops                          338065                       # Total snoops (count)
system.tol3bus.snoopTraffic                   3273152                       # Total snoop traffic (bytes)
system.tol3bus.snoop_fanout::samples          1454501                       # Request fanout histogram
system.tol3bus.snoop_fanout::mean            0.002573                       # Request fanout histogram
system.tol3bus.snoop_fanout::stdev           0.050657                       # Request fanout histogram
system.tol3bus.snoop_fanout::underflows             0      0.00%      0.00% # Request fanout histogram
system.tol3bus.snoop_fanout::0                1450759     99.74%     99.74% # Request fanout histogram
system.tol3bus.snoop_fanout::1                   3742      0.26%    100.00% # Request fanout histogram
system.tol3bus.snoop_fanout::overflows              0      0.00%    100.00% # Request fanout histogram
system.tol3bus.snoop_fanout::min_value              0                       # Request fanout histogram
system.tol3bus.snoop_fanout::max_value              1                       # Request fanout histogram
system.tol3bus.snoop_fanout::total            1454501                       # Request fanout histogram
system.tol3bus.reqLayer0.occupancy          822629880                       # Layer occupancy (ticks)
system.tol3bus.reqLayer0.utilization              0.1                       # Layer utilization (%)
system.tol3bus.respLayer0.occupancy         743543712                       # Layer occupancy (ticks)
system.tol3bus.respLayer0.utilization             0.1                       # Layer utilization (%)

---------- End Simulation Statistics   ----------
