
---------- Begin Simulation Statistics ----------
sim_seconds                                  1.417330                       # Number of seconds simulated
sim_ticks                                1417329754497                       # Number of ticks simulated
final_tick                               734369770308483                       # Number of ticks from beginning of simulation (restored from checkpoints and never reset)
sim_freq                                 1000000000000                       # Frequency of simulated ticks
host_inst_rate                                 455331                       # Simulator instruction rate (inst/s)
host_op_rate                                   455331                       # Simulator op (including micro ops) rate (op/s)
host_tick_rate                              537795184                       # Simulator tick rate (ticks/s)
host_mem_usage                                2391072                       # Number of bytes of host memory used
host_seconds                                  2635.45                       # Real time elapsed on the host
sim_insts                                  1200000012                       # Number of instructions simulated
sim_ops                                    1200000012                       # Number of ops (including micro ops) simulated
system.voltage_domain.voltage                       1                       # Voltage in Volts
system.clk_domain.clock                          1000                       # Clock period in ticks
system.mem_ctrls0.pwrStateResidencyTicks::UNDEFINED 734369770308483                       # Cumulative time (in ticks) in various power states
system.mem_ctrls0.bytes_read::cpu.inst            128                       # Number of bytes read from this memory
system.mem_ctrls0.bytes_read::cpu.data            128                       # Number of bytes read from this memory
system.mem_ctrls0.bytes_read::switch_cpus.inst       202304                       # Number of bytes read from this memory
system.mem_ctrls0.bytes_read::switch_cpus.data     54491264                       # Number of bytes read from this memory
system.mem_ctrls0.bytes_read::switch_cpus_1.inst        46784                       # Number of bytes read from this memory
system.mem_ctrls0.bytes_read::switch_cpus_1.data     15140544                       # Number of bytes read from this memory
system.mem_ctrls0.bytes_read::total          69881152                       # Number of bytes read from this memory
system.mem_ctrls0.bytes_inst_read::cpu.inst          128                       # Number of instructions bytes read from this memory
system.mem_ctrls0.bytes_inst_read::switch_cpus.inst       202304                       # Number of instructions bytes read from this memory
system.mem_ctrls0.bytes_inst_read::switch_cpus_1.inst        46784                       # Number of instructions bytes read from this memory
system.mem_ctrls0.bytes_inst_read::total       249216                       # Number of instructions bytes read from this memory
system.mem_ctrls0.bytes_written::writebacks      5026304                       # Number of bytes written to this memory
system.mem_ctrls0.bytes_written::total        5026304                       # Number of bytes written to this memory
system.mem_ctrls0.num_reads::cpu.inst               2                       # Number of read requests responded to by this memory
system.mem_ctrls0.num_reads::cpu.data               2                       # Number of read requests responded to by this memory
system.mem_ctrls0.num_reads::switch_cpus.inst         3161                       # Number of read requests responded to by this memory
system.mem_ctrls0.num_reads::switch_cpus.data       851426                       # Number of read requests responded to by this memory
system.mem_ctrls0.num_reads::switch_cpus_1.inst          731                       # Number of read requests responded to by this memory
system.mem_ctrls0.num_reads::switch_cpus_1.data       236571                       # Number of read requests responded to by this memory
system.mem_ctrls0.num_reads::total            1091893                       # Number of read requests responded to by this memory
system.mem_ctrls0.num_writes::writebacks        78536                       # Number of write requests responded to by this memory
system.mem_ctrls0.num_writes::total             78536                       # Number of write requests responded to by this memory
system.mem_ctrls0.bw_read::cpu.inst                90                       # Total read bandwidth from this memory (bytes/s)
system.mem_ctrls0.bw_read::cpu.data                90                       # Total read bandwidth from this memory (bytes/s)
system.mem_ctrls0.bw_read::switch_cpus.inst       142736                       # Total read bandwidth from this memory (bytes/s)
system.mem_ctrls0.bw_read::switch_cpus.data     38446426                       # Total read bandwidth from this memory (bytes/s)
system.mem_ctrls0.bw_read::switch_cpus_1.inst        33009                       # Total read bandwidth from this memory (bytes/s)
system.mem_ctrls0.bw_read::switch_cpus_1.data     10682443                       # Total read bandwidth from this memory (bytes/s)
system.mem_ctrls0.bw_read::total             49304794                       # Total read bandwidth from this memory (bytes/s)
system.mem_ctrls0.bw_inst_read::cpu.inst           90                       # Instruction read bandwidth from this memory (bytes/s)
system.mem_ctrls0.bw_inst_read::switch_cpus.inst       142736                       # Instruction read bandwidth from this memory (bytes/s)
system.mem_ctrls0.bw_inst_read::switch_cpus_1.inst        33009                       # Instruction read bandwidth from this memory (bytes/s)
system.mem_ctrls0.bw_inst_read::total          175835                       # Instruction read bandwidth from this memory (bytes/s)
system.mem_ctrls0.bw_write::writebacks        3546319                       # Write bandwidth from this memory (bytes/s)
system.mem_ctrls0.bw_write::total             3546319                       # Write bandwidth from this memory (bytes/s)
system.mem_ctrls0.bw_total::writebacks        3546319                       # Total bandwidth to/from this memory (bytes/s)
system.mem_ctrls0.bw_total::cpu.inst               90                       # Total bandwidth to/from this memory (bytes/s)
system.mem_ctrls0.bw_total::cpu.data               90                       # Total bandwidth to/from this memory (bytes/s)
system.mem_ctrls0.bw_total::switch_cpus.inst       142736                       # Total bandwidth to/from this memory (bytes/s)
system.mem_ctrls0.bw_total::switch_cpus.data     38446426                       # Total bandwidth to/from this memory (bytes/s)
system.mem_ctrls0.bw_total::switch_cpus_1.inst        33009                       # Total bandwidth to/from this memory (bytes/s)
system.mem_ctrls0.bw_total::switch_cpus_1.data     10682443                       # Total bandwidth to/from this memory (bytes/s)
system.mem_ctrls0.bw_total::total            52851114                       # Total bandwidth to/from this memory (bytes/s)
system.mem_ctrls0.readReqs                    1091893                       # Number of read requests accepted
system.mem_ctrls0.writeReqs                     78536                       # Number of write requests accepted
system.mem_ctrls0.readBursts                  1091893                       # Number of DRAM read bursts, including those serviced by the write queue
system.mem_ctrls0.writeBursts                   78536                       # Number of DRAM write bursts, including those merged in the write queue
system.mem_ctrls0.bytesReadDRAM              69449280                       # Total number of bytes read from DRAM
system.mem_ctrls0.bytesReadWrQ                 431872                       # Total number of bytes read from write queue
system.mem_ctrls0.bytesWritten                5015040                       # Total number of bytes written to DRAM
system.mem_ctrls0.bytesReadSys               69881152                       # Total read bytes from the system interface side
system.mem_ctrls0.bytesWrittenSys             5026304                       # Total written bytes from the system interface side
system.mem_ctrls0.servicedByWrQ                  6748                       # Number of DRAM read bursts serviced by the write queue
system.mem_ctrls0.mergedWrBursts                  152                       # Number of DRAM write bursts merged with an existing one
system.mem_ctrls0.neitherReadNorWriteReqs            0                       # Number of requests that are neither read nor write
system.mem_ctrls0.perBankRdBursts::0            88383                       # Per bank write bursts
system.mem_ctrls0.perBankRdBursts::1            96870                       # Per bank write bursts
system.mem_ctrls0.perBankRdBursts::2            82694                       # Per bank write bursts
system.mem_ctrls0.perBankRdBursts::3            53091                       # Per bank write bursts
system.mem_ctrls0.perBankRdBursts::4            61685                       # Per bank write bursts
system.mem_ctrls0.perBankRdBursts::5            51236                       # Per bank write bursts
system.mem_ctrls0.perBankRdBursts::6            44033                       # Per bank write bursts
system.mem_ctrls0.perBankRdBursts::7            87478                       # Per bank write bursts
system.mem_ctrls0.perBankRdBursts::8            81123                       # Per bank write bursts
system.mem_ctrls0.perBankRdBursts::9            82481                       # Per bank write bursts
system.mem_ctrls0.perBankRdBursts::10           70094                       # Per bank write bursts
system.mem_ctrls0.perBankRdBursts::11           46147                       # Per bank write bursts
system.mem_ctrls0.perBankRdBursts::12           58710                       # Per bank write bursts
system.mem_ctrls0.perBankRdBursts::13           54253                       # Per bank write bursts
system.mem_ctrls0.perBankRdBursts::14           42965                       # Per bank write bursts
system.mem_ctrls0.perBankRdBursts::15           83902                       # Per bank write bursts
system.mem_ctrls0.perBankWrBursts::0             6818                       # Per bank write bursts
system.mem_ctrls0.perBankWrBursts::1             7691                       # Per bank write bursts
system.mem_ctrls0.perBankWrBursts::2             7279                       # Per bank write bursts
system.mem_ctrls0.perBankWrBursts::3             3954                       # Per bank write bursts
system.mem_ctrls0.perBankWrBursts::4             3392                       # Per bank write bursts
system.mem_ctrls0.perBankWrBursts::5             3098                       # Per bank write bursts
system.mem_ctrls0.perBankWrBursts::6             1625                       # Per bank write bursts
system.mem_ctrls0.perBankWrBursts::7             2172                       # Per bank write bursts
system.mem_ctrls0.perBankWrBursts::8             1792                       # Per bank write bursts
system.mem_ctrls0.perBankWrBursts::9             4352                       # Per bank write bursts
system.mem_ctrls0.perBankWrBursts::10            7056                       # Per bank write bursts
system.mem_ctrls0.perBankWrBursts::11            5055                       # Per bank write bursts
system.mem_ctrls0.perBankWrBursts::12            6534                       # Per bank write bursts
system.mem_ctrls0.perBankWrBursts::13            6298                       # Per bank write bursts
system.mem_ctrls0.perBankWrBursts::14            4717                       # Per bank write bursts
system.mem_ctrls0.perBankWrBursts::15            6527                       # Per bank write bursts
system.mem_ctrls0.numRdRetry                        0                       # Number of times read queue was full causing retry
system.mem_ctrls0.numWrRetry                        0                       # Number of times write queue was full causing retry
system.mem_ctrls0.totGap                 1417320696029                       # Total gap between requests
system.mem_ctrls0.readPktSize::0                    0                       # Read request sizes (log2)
system.mem_ctrls0.readPktSize::1                    0                       # Read request sizes (log2)
system.mem_ctrls0.readPktSize::2                    0                       # Read request sizes (log2)
system.mem_ctrls0.readPktSize::3                    0                       # Read request sizes (log2)
system.mem_ctrls0.readPktSize::4                    0                       # Read request sizes (log2)
system.mem_ctrls0.readPktSize::5                    0                       # Read request sizes (log2)
system.mem_ctrls0.readPktSize::6              1091893                       # Read request sizes (log2)
system.mem_ctrls0.writePktSize::0                   0                       # Write request sizes (log2)
system.mem_ctrls0.writePktSize::1                   0                       # Write request sizes (log2)
system.mem_ctrls0.writePktSize::2                   0                       # Write request sizes (log2)
system.mem_ctrls0.writePktSize::3                   0                       # Write request sizes (log2)
system.mem_ctrls0.writePktSize::4                   0                       # Write request sizes (log2)
system.mem_ctrls0.writePktSize::5                   0                       # Write request sizes (log2)
system.mem_ctrls0.writePktSize::6               78536                       # Write request sizes (log2)
system.mem_ctrls0.rdQLenPdf::0                1039848                       # What read queue length does an incoming req see
system.mem_ctrls0.rdQLenPdf::1                  41930                       # What read queue length does an incoming req see
system.mem_ctrls0.rdQLenPdf::2                   3119                       # What read queue length does an incoming req see
system.mem_ctrls0.rdQLenPdf::3                    248                       # What read queue length does an incoming req see
system.mem_ctrls0.rdQLenPdf::4                      0                       # What read queue length does an incoming req see
system.mem_ctrls0.rdQLenPdf::5                      0                       # What read queue length does an incoming req see
system.mem_ctrls0.rdQLenPdf::6                      0                       # What read queue length does an incoming req see
system.mem_ctrls0.rdQLenPdf::7                      0                       # What read queue length does an incoming req see
system.mem_ctrls0.rdQLenPdf::8                      0                       # What read queue length does an incoming req see
system.mem_ctrls0.rdQLenPdf::9                      0                       # What read queue length does an incoming req see
system.mem_ctrls0.rdQLenPdf::10                     0                       # What read queue length does an incoming req see
system.mem_ctrls0.rdQLenPdf::11                     0                       # What read queue length does an incoming req see
system.mem_ctrls0.rdQLenPdf::12                     0                       # What read queue length does an incoming req see
system.mem_ctrls0.rdQLenPdf::13                     0                       # What read queue length does an incoming req see
system.mem_ctrls0.rdQLenPdf::14                     0                       # What read queue length does an incoming req see
system.mem_ctrls0.rdQLenPdf::15                     0                       # What read queue length does an incoming req see
system.mem_ctrls0.rdQLenPdf::16                     0                       # What read queue length does an incoming req see
system.mem_ctrls0.rdQLenPdf::17                     0                       # What read queue length does an incoming req see
system.mem_ctrls0.rdQLenPdf::18                     0                       # What read queue length does an incoming req see
system.mem_ctrls0.rdQLenPdf::19                     0                       # What read queue length does an incoming req see
system.mem_ctrls0.rdQLenPdf::20                     0                       # What read queue length does an incoming req see
system.mem_ctrls0.rdQLenPdf::21                     0                       # What read queue length does an incoming req see
system.mem_ctrls0.rdQLenPdf::22                     0                       # What read queue length does an incoming req see
system.mem_ctrls0.rdQLenPdf::23                     0                       # What read queue length does an incoming req see
system.mem_ctrls0.rdQLenPdf::24                     0                       # What read queue length does an incoming req see
system.mem_ctrls0.rdQLenPdf::25                     0                       # What read queue length does an incoming req see
system.mem_ctrls0.rdQLenPdf::26                     0                       # What read queue length does an incoming req see
system.mem_ctrls0.rdQLenPdf::27                     0                       # What read queue length does an incoming req see
system.mem_ctrls0.rdQLenPdf::28                     0                       # What read queue length does an incoming req see
system.mem_ctrls0.rdQLenPdf::29                     0                       # What read queue length does an incoming req see
system.mem_ctrls0.rdQLenPdf::30                     0                       # What read queue length does an incoming req see
system.mem_ctrls0.rdQLenPdf::31                     0                       # What read queue length does an incoming req see
system.mem_ctrls0.wrQLenPdf::0                      2                       # What write queue length does an incoming req see
system.mem_ctrls0.wrQLenPdf::1                      2                       # What write queue length does an incoming req see
system.mem_ctrls0.wrQLenPdf::2                      2                       # What write queue length does an incoming req see
system.mem_ctrls0.wrQLenPdf::3                      2                       # What write queue length does an incoming req see
system.mem_ctrls0.wrQLenPdf::4                      2                       # What write queue length does an incoming req see
system.mem_ctrls0.wrQLenPdf::5                      2                       # What write queue length does an incoming req see
system.mem_ctrls0.wrQLenPdf::6                      2                       # What write queue length does an incoming req see
system.mem_ctrls0.wrQLenPdf::7                      2                       # What write queue length does an incoming req see
system.mem_ctrls0.wrQLenPdf::8                      2                       # What write queue length does an incoming req see
system.mem_ctrls0.wrQLenPdf::9                      2                       # What write queue length does an incoming req see
system.mem_ctrls0.wrQLenPdf::10                     2                       # What write queue length does an incoming req see
system.mem_ctrls0.wrQLenPdf::11                     2                       # What write queue length does an incoming req see
system.mem_ctrls0.wrQLenPdf::12                     2                       # What write queue length does an incoming req see
system.mem_ctrls0.wrQLenPdf::13                     2                       # What write queue length does an incoming req see
system.mem_ctrls0.wrQLenPdf::14                     2                       # What write queue length does an incoming req see
system.mem_ctrls0.wrQLenPdf::15                  3475                       # What write queue length does an incoming req see
system.mem_ctrls0.wrQLenPdf::16                  3523                       # What write queue length does an incoming req see
system.mem_ctrls0.wrQLenPdf::17                  4444                       # What write queue length does an incoming req see
system.mem_ctrls0.wrQLenPdf::18                  4461                       # What write queue length does an incoming req see
system.mem_ctrls0.wrQLenPdf::19                  4461                       # What write queue length does an incoming req see
system.mem_ctrls0.wrQLenPdf::20                  4460                       # What write queue length does an incoming req see
system.mem_ctrls0.wrQLenPdf::21                  4464                       # What write queue length does an incoming req see
system.mem_ctrls0.wrQLenPdf::22                  4459                       # What write queue length does an incoming req see
system.mem_ctrls0.wrQLenPdf::23                  4460                       # What write queue length does an incoming req see
system.mem_ctrls0.wrQLenPdf::24                  4459                       # What write queue length does an incoming req see
system.mem_ctrls0.wrQLenPdf::25                  4461                       # What write queue length does an incoming req see
system.mem_ctrls0.wrQLenPdf::26                  4461                       # What write queue length does an incoming req see
system.mem_ctrls0.wrQLenPdf::27                  4461                       # What write queue length does an incoming req see
system.mem_ctrls0.wrQLenPdf::28                  4460                       # What write queue length does an incoming req see
system.mem_ctrls0.wrQLenPdf::29                  4459                       # What write queue length does an incoming req see
system.mem_ctrls0.wrQLenPdf::30                  4471                       # What write queue length does an incoming req see
system.mem_ctrls0.wrQLenPdf::31                  4457                       # What write queue length does an incoming req see
system.mem_ctrls0.wrQLenPdf::32                  4458                       # What write queue length does an incoming req see
system.mem_ctrls0.wrQLenPdf::33                     0                       # What write queue length does an incoming req see
system.mem_ctrls0.wrQLenPdf::34                     0                       # What write queue length does an incoming req see
system.mem_ctrls0.wrQLenPdf::35                     0                       # What write queue length does an incoming req see
system.mem_ctrls0.wrQLenPdf::36                     0                       # What write queue length does an incoming req see
system.mem_ctrls0.wrQLenPdf::37                     0                       # What write queue length does an incoming req see
system.mem_ctrls0.wrQLenPdf::38                     0                       # What write queue length does an incoming req see
system.mem_ctrls0.wrQLenPdf::39                     0                       # What write queue length does an incoming req see
system.mem_ctrls0.wrQLenPdf::40                     0                       # What write queue length does an incoming req see
system.mem_ctrls0.wrQLenPdf::41                     0                       # What write queue length does an incoming req see
system.mem_ctrls0.wrQLenPdf::42                     0                       # What write queue length does an incoming req see
system.mem_ctrls0.wrQLenPdf::43                     0                       # What write queue length does an incoming req see
system.mem_ctrls0.wrQLenPdf::44                     0                       # What write queue length does an incoming req see
system.mem_ctrls0.wrQLenPdf::45                     0                       # What write queue length does an incoming req see
system.mem_ctrls0.wrQLenPdf::46                     0                       # What write queue length does an incoming req see
system.mem_ctrls0.wrQLenPdf::47                     0                       # What write queue length does an incoming req see
system.mem_ctrls0.wrQLenPdf::48                     0                       # What write queue length does an incoming req see
system.mem_ctrls0.wrQLenPdf::49                     0                       # What write queue length does an incoming req see
system.mem_ctrls0.wrQLenPdf::50                     0                       # What write queue length does an incoming req see
system.mem_ctrls0.wrQLenPdf::51                     0                       # What write queue length does an incoming req see
system.mem_ctrls0.wrQLenPdf::52                     0                       # What write queue length does an incoming req see
system.mem_ctrls0.wrQLenPdf::53                     0                       # What write queue length does an incoming req see
system.mem_ctrls0.wrQLenPdf::54                     0                       # What write queue length does an incoming req see
system.mem_ctrls0.wrQLenPdf::55                     0                       # What write queue length does an incoming req see
system.mem_ctrls0.wrQLenPdf::56                     0                       # What write queue length does an incoming req see
system.mem_ctrls0.wrQLenPdf::57                     0                       # What write queue length does an incoming req see
system.mem_ctrls0.wrQLenPdf::58                     0                       # What write queue length does an incoming req see
system.mem_ctrls0.wrQLenPdf::59                     0                       # What write queue length does an incoming req see
system.mem_ctrls0.wrQLenPdf::60                     0                       # What write queue length does an incoming req see
system.mem_ctrls0.wrQLenPdf::61                     0                       # What write queue length does an incoming req see
system.mem_ctrls0.wrQLenPdf::62                     0                       # What write queue length does an incoming req see
system.mem_ctrls0.wrQLenPdf::63                     0                       # What write queue length does an incoming req see
system.mem_ctrls0.bytesPerActivate::samples       443488                       # Bytes accessed per row activation
system.mem_ctrls0.bytesPerActivate::mean   167.906054                       # Bytes accessed per row activation
system.mem_ctrls0.bytesPerActivate::gmean   119.684071                       # Bytes accessed per row activation
system.mem_ctrls0.bytesPerActivate::stdev   168.083094                       # Bytes accessed per row activation
system.mem_ctrls0.bytesPerActivate::0-127       231256     52.14%     52.14% # Bytes accessed per row activation
system.mem_ctrls0.bytesPerActivate::128-255       107341     24.20%     76.35% # Bytes accessed per row activation
system.mem_ctrls0.bytesPerActivate::256-383        48243     10.88%     87.23% # Bytes accessed per row activation
system.mem_ctrls0.bytesPerActivate::384-511        30729      6.93%     94.16% # Bytes accessed per row activation
system.mem_ctrls0.bytesPerActivate::512-639        15301      3.45%     97.61% # Bytes accessed per row activation
system.mem_ctrls0.bytesPerActivate::640-767         3524      0.79%     98.40% # Bytes accessed per row activation
system.mem_ctrls0.bytesPerActivate::768-895         1660      0.37%     98.77% # Bytes accessed per row activation
system.mem_ctrls0.bytesPerActivate::896-1023         1305      0.29%     99.07% # Bytes accessed per row activation
system.mem_ctrls0.bytesPerActivate::1024-1151         4129      0.93%    100.00% # Bytes accessed per row activation
system.mem_ctrls0.bytesPerActivate::total       443488                       # Bytes accessed per row activation
system.mem_ctrls0.rdPerTurnAround::samples         4458                       # Reads before turning the bus around for writes
system.mem_ctrls0.rdPerTurnAround::mean    243.218035                       # Reads before turning the bus around for writes
system.mem_ctrls0.rdPerTurnAround::gmean   173.044152                       # Reads before turning the bus around for writes
system.mem_ctrls0.rdPerTurnAround::stdev   505.130302                       # Reads before turning the bus around for writes
system.mem_ctrls0.rdPerTurnAround::0-1023         4348     97.53%     97.53% # Reads before turning the bus around for writes
system.mem_ctrls0.rdPerTurnAround::1024-2047          103      2.31%     99.84% # Reads before turning the bus around for writes
system.mem_ctrls0.rdPerTurnAround::2048-3071            6      0.13%     99.98% # Reads before turning the bus around for writes
system.mem_ctrls0.rdPerTurnAround::29696-30719            1      0.02%    100.00% # Reads before turning the bus around for writes
system.mem_ctrls0.rdPerTurnAround::total         4458                       # Reads before turning the bus around for writes
system.mem_ctrls0.wrPerTurnAround::samples         4458                       # Writes before turning the bus around for reads
system.mem_ctrls0.wrPerTurnAround::mean     17.577389                       # Writes before turning the bus around for reads
system.mem_ctrls0.wrPerTurnAround::gmean    17.556719                       # Writes before turning the bus around for reads
system.mem_ctrls0.wrPerTurnAround::stdev     0.839591                       # Writes before turning the bus around for reads
system.mem_ctrls0.wrPerTurnAround::16             937     21.02%     21.02% # Writes before turning the bus around for reads
system.mem_ctrls0.wrPerTurnAround::17              45      1.01%     22.03% # Writes before turning the bus around for reads
system.mem_ctrls0.wrPerTurnAround::18            3451     77.41%     99.44% # Writes before turning the bus around for reads
system.mem_ctrls0.wrPerTurnAround::19              24      0.54%     99.98% # Writes before turning the bus around for reads
system.mem_ctrls0.wrPerTurnAround::29               1      0.02%    100.00% # Writes before turning the bus around for reads
system.mem_ctrls0.wrPerTurnAround::total         4458                       # Writes before turning the bus around for reads
system.mem_ctrls0.totQLat                 36337767839                       # Total ticks spent queuing
system.mem_ctrls0.totMemAccLat            56684236589                       # Total ticks spent from burst creation until serviced by the DRAM
system.mem_ctrls0.totBusLat                5425725000                       # Total ticks spent in databus transfers
system.mem_ctrls0.avgQLat                    33486.56                       # Average queueing delay per DRAM burst
system.mem_ctrls0.avgBusLat                   5000.00                       # Average bus latency per DRAM burst
system.mem_ctrls0.avgMemAccLat               52236.56                       # Average memory access latency per DRAM burst
system.mem_ctrls0.avgRdBW                       49.00                       # Average DRAM read bandwidth in MiByte/s
system.mem_ctrls0.avgWrBW                        3.54                       # Average achieved write bandwidth in MiByte/s
system.mem_ctrls0.avgRdBWSys                    49.30                       # Average system read bandwidth in MiByte/s
system.mem_ctrls0.avgWrBWSys                     3.55                       # Average system write bandwidth in MiByte/s
system.mem_ctrls0.peakBW                     12800.00                       # Theoretical peak bandwidth in MiByte/s
system.mem_ctrls0.busUtil                        0.41                       # Data bus utilization in percentage
system.mem_ctrls0.busUtilRead                    0.38                       # Data bus utilization in percentage for reads
system.mem_ctrls0.busUtilWrite                   0.03                       # Data bus utilization in percentage for writes
system.mem_ctrls0.avgRdQLen                      1.01                       # Average read queue length when enqueuing
system.mem_ctrls0.avgWrQLen                     24.16                       # Average write queue length when enqueuing
system.mem_ctrls0.readRowHits                  680586                       # Number of row buffer hits during reads
system.mem_ctrls0.writeRowHits                  39431                       # Number of row buffer hits during writes
system.mem_ctrls0.readRowHitRate                62.72                       # Row buffer hit rate for reads
system.mem_ctrls0.writeRowHitRate               50.30                       # Row buffer hit rate for writes
system.mem_ctrls0.avgGap                   1210941.20                       # Average gap between requests
system.mem_ctrls0.pageHitRate                   61.88                       # Row buffer hit rate, read and write combined
system.mem_ctrls0_0.actEnergy              1703596860                       # Energy for activate commands per rank (pJ)
system.mem_ctrls0_0.preEnergy               905483205                       # Energy for precharge commands per rank (pJ)
system.mem_ctrls0_0.readEnergy             4037455800                       # Energy for read commands per rank (pJ)
system.mem_ctrls0_0.writeEnergy             188071380                       # Energy for write commands per rank (pJ)
system.mem_ctrls0_0.refreshEnergy        81799979040.000015                       # Energy for refresh commands per rank (pJ)
system.mem_ctrls0_0.actBackEnergy         25354014390                       # Energy for active background per rank (pJ)
system.mem_ctrls0_0.preBackEnergy          3345049440                       # Energy for precharge background per rank (pJ)
system.mem_ctrls0_0.actPowerDownEnergy   267005513820                       # Energy for active power-down per rank (pJ)
system.mem_ctrls0_0.prePowerDownEnergy    97931004000                       # Energy for precharge power-down per rank (pJ)
system.mem_ctrls0_0.selfRefreshEnergy    133001770200                       # Energy for self refresh per rank (pJ)
system.mem_ctrls0_0.totalEnergy          615302191455                       # Total energy per rank (pJ)
system.mem_ctrls0_0.averagePower           434.127759                       # Core power per rank (mW)
system.mem_ctrls0_0.totalIdleTime        1352941001028                       # Total Idle time Per DRAM Rank
system.mem_ctrls0_0.memoryStateTime::IDLE   5430558417                       # Time in different power states
system.mem_ctrls0_0.memoryStateTime::REF  34714182000                       # Time in different power states
system.mem_ctrls0_0.memoryStateTime::SREF 512383398247                       # Time in different power states
system.mem_ctrls0_0.memoryStateTime::PRE_PDN 255029172124                       # Time in different power states
system.mem_ctrls0_0.memoryStateTime::ACT  24235367375                       # Time in different power states
system.mem_ctrls0_0.memoryStateTime::ACT_PDN 585537076334                       # Time in different power states
system.mem_ctrls0_1.actEnergy              1462907460                       # Energy for activate commands per rank (pJ)
system.mem_ctrls0_1.preEnergy               777553755                       # Energy for precharge commands per rank (pJ)
system.mem_ctrls0_1.readEnergy             3710479500                       # Energy for read commands per rank (pJ)
system.mem_ctrls0_1.writeEnergy             220967820                       # Energy for write commands per rank (pJ)
system.mem_ctrls0_1.refreshEnergy        76850283120.000015                       # Energy for refresh commands per rank (pJ)
system.mem_ctrls0_1.actBackEnergy         24486685860                       # Energy for active background per rank (pJ)
system.mem_ctrls0_1.preBackEnergy          3187326240                       # Energy for precharge background per rank (pJ)
system.mem_ctrls0_1.actPowerDownEnergy   246905005320                       # Energy for active power-down per rank (pJ)
system.mem_ctrls0_1.prePowerDownEnergy    92678467200                       # Energy for precharge power-down per rank (pJ)
system.mem_ctrls0_1.selfRefreshEnergy    147217983450                       # Energy for self refresh per rank (pJ)
system.mem_ctrls0_1.totalEnergy          597526150605                       # Total energy per rank (pJ)
system.mem_ctrls0_1.averagePower           421.585835                       # Core power per rank (mW)
system.mem_ctrls0_1.totalIdleTime        1355266006382                       # Total Idle time Per DRAM Rank
system.mem_ctrls0_1.memoryStateTime::IDLE   5233357911                       # Time in different power states
system.mem_ctrls0_1.memoryStateTime::REF  32618056000                       # Time in different power states
system.mem_ctrls0_1.memoryStateTime::SREF 572458751974                       # Time in different power states
system.mem_ctrls0_1.memoryStateTime::PRE_PDN 241351053181                       # Time in different power states
system.mem_ctrls0_1.memoryStateTime::ACT  24209620931                       # Time in different power states
system.mem_ctrls0_1.memoryStateTime::ACT_PDN 541458914500                       # Time in different power states
system.mem_ctrls1.pwrStateResidencyTicks::UNDEFINED 734369770308483                       # Cumulative time (in ticks) in various power states
system.mem_ctrls1.bytes_read::cpu.inst             64                       # Number of bytes read from this memory
system.mem_ctrls1.bytes_read::cpu.data            192                       # Number of bytes read from this memory
system.mem_ctrls1.bytes_read::switch_cpus.inst       193408                       # Number of bytes read from this memory
system.mem_ctrls1.bytes_read::switch_cpus.data     54366592                       # Number of bytes read from this memory
system.mem_ctrls1.bytes_read::switch_cpus_1.inst        45632                       # Number of bytes read from this memory
system.mem_ctrls1.bytes_read::switch_cpus_1.data     15148608                       # Number of bytes read from this memory
system.mem_ctrls1.bytes_read::total          69754496                       # Number of bytes read from this memory
system.mem_ctrls1.bytes_inst_read::cpu.inst           64                       # Number of instructions bytes read from this memory
system.mem_ctrls1.bytes_inst_read::switch_cpus.inst       193408                       # Number of instructions bytes read from this memory
system.mem_ctrls1.bytes_inst_read::switch_cpus_1.inst        45632                       # Number of instructions bytes read from this memory
system.mem_ctrls1.bytes_inst_read::total       239104                       # Number of instructions bytes read from this memory
system.mem_ctrls1.bytes_written::writebacks      4999040                       # Number of bytes written to this memory
system.mem_ctrls1.bytes_written::total        4999040                       # Number of bytes written to this memory
system.mem_ctrls1.num_reads::cpu.inst               1                       # Number of read requests responded to by this memory
system.mem_ctrls1.num_reads::cpu.data               3                       # Number of read requests responded to by this memory
system.mem_ctrls1.num_reads::switch_cpus.inst         3022                       # Number of read requests responded to by this memory
system.mem_ctrls1.num_reads::switch_cpus.data       849478                       # Number of read requests responded to by this memory
system.mem_ctrls1.num_reads::switch_cpus_1.inst          713                       # Number of read requests responded to by this memory
system.mem_ctrls1.num_reads::switch_cpus_1.data       236697                       # Number of read requests responded to by this memory
system.mem_ctrls1.num_reads::total            1089914                       # Number of read requests responded to by this memory
system.mem_ctrls1.num_writes::writebacks        78110                       # Number of write requests responded to by this memory
system.mem_ctrls1.num_writes::total             78110                       # Number of write requests responded to by this memory
system.mem_ctrls1.bw_read::cpu.inst                45                       # Total read bandwidth from this memory (bytes/s)
system.mem_ctrls1.bw_read::cpu.data               135                       # Total read bandwidth from this memory (bytes/s)
system.mem_ctrls1.bw_read::switch_cpus.inst       136459                       # Total read bandwidth from this memory (bytes/s)
system.mem_ctrls1.bw_read::switch_cpus.data     38358464                       # Total read bandwidth from this memory (bytes/s)
system.mem_ctrls1.bw_read::switch_cpus_1.inst        32196                       # Total read bandwidth from this memory (bytes/s)
system.mem_ctrls1.bw_read::switch_cpus_1.data     10688132                       # Total read bandwidth from this memory (bytes/s)
system.mem_ctrls1.bw_read::total             49215432                       # Total read bandwidth from this memory (bytes/s)
system.mem_ctrls1.bw_inst_read::cpu.inst           45                       # Instruction read bandwidth from this memory (bytes/s)
system.mem_ctrls1.bw_inst_read::switch_cpus.inst       136459                       # Instruction read bandwidth from this memory (bytes/s)
system.mem_ctrls1.bw_inst_read::switch_cpus_1.inst        32196                       # Instruction read bandwidth from this memory (bytes/s)
system.mem_ctrls1.bw_inst_read::total          168700                       # Instruction read bandwidth from this memory (bytes/s)
system.mem_ctrls1.bw_write::writebacks        3527083                       # Write bandwidth from this memory (bytes/s)
system.mem_ctrls1.bw_write::total             3527083                       # Write bandwidth from this memory (bytes/s)
system.mem_ctrls1.bw_total::writebacks        3527083                       # Total bandwidth to/from this memory (bytes/s)
system.mem_ctrls1.bw_total::cpu.inst               45                       # Total bandwidth to/from this memory (bytes/s)
system.mem_ctrls1.bw_total::cpu.data              135                       # Total bandwidth to/from this memory (bytes/s)
system.mem_ctrls1.bw_total::switch_cpus.inst       136459                       # Total bandwidth to/from this memory (bytes/s)
system.mem_ctrls1.bw_total::switch_cpus.data     38358464                       # Total bandwidth to/from this memory (bytes/s)
system.mem_ctrls1.bw_total::switch_cpus_1.inst        32196                       # Total bandwidth to/from this memory (bytes/s)
system.mem_ctrls1.bw_total::switch_cpus_1.data     10688132                       # Total bandwidth to/from this memory (bytes/s)
system.mem_ctrls1.bw_total::total            52742515                       # Total bandwidth to/from this memory (bytes/s)
system.mem_ctrls1.readReqs                    1089914                       # Number of read requests accepted
system.mem_ctrls1.writeReqs                     78110                       # Number of write requests accepted
system.mem_ctrls1.readBursts                  1089914                       # Number of DRAM read bursts, including those serviced by the write queue
system.mem_ctrls1.writeBursts                   78110                       # Number of DRAM write bursts, including those merged in the write queue
system.mem_ctrls1.bytesReadDRAM              69329408                       # Total number of bytes read from DRAM
system.mem_ctrls1.bytesReadWrQ                 425088                       # Total number of bytes read from write queue
system.mem_ctrls1.bytesWritten                4988736                       # Total number of bytes written to DRAM
system.mem_ctrls1.bytesReadSys               69754496                       # Total read bytes from the system interface side
system.mem_ctrls1.bytesWrittenSys             4999040                       # Total written bytes from the system interface side
system.mem_ctrls1.servicedByWrQ                  6642                       # Number of DRAM read bursts serviced by the write queue
system.mem_ctrls1.mergedWrBursts                  139                       # Number of DRAM write bursts merged with an existing one
system.mem_ctrls1.neitherReadNorWriteReqs            0                       # Number of requests that are neither read nor write
system.mem_ctrls1.perBankRdBursts::0            88487                       # Per bank write bursts
system.mem_ctrls1.perBankRdBursts::1            96391                       # Per bank write bursts
system.mem_ctrls1.perBankRdBursts::2            82579                       # Per bank write bursts
system.mem_ctrls1.perBankRdBursts::3            53809                       # Per bank write bursts
system.mem_ctrls1.perBankRdBursts::4            61848                       # Per bank write bursts
system.mem_ctrls1.perBankRdBursts::5            50438                       # Per bank write bursts
system.mem_ctrls1.perBankRdBursts::6            43962                       # Per bank write bursts
system.mem_ctrls1.perBankRdBursts::7            87272                       # Per bank write bursts
system.mem_ctrls1.perBankRdBursts::8            80318                       # Per bank write bursts
system.mem_ctrls1.perBankRdBursts::9            81994                       # Per bank write bursts
system.mem_ctrls1.perBankRdBursts::10           69851                       # Per bank write bursts
system.mem_ctrls1.perBankRdBursts::11           46781                       # Per bank write bursts
system.mem_ctrls1.perBankRdBursts::12           59366                       # Per bank write bursts
system.mem_ctrls1.perBankRdBursts::13           54217                       # Per bank write bursts
system.mem_ctrls1.perBankRdBursts::14           43043                       # Per bank write bursts
system.mem_ctrls1.perBankRdBursts::15           82916                       # Per bank write bursts
system.mem_ctrls1.perBankWrBursts::0             6880                       # Per bank write bursts
system.mem_ctrls1.perBankWrBursts::1             7443                       # Per bank write bursts
system.mem_ctrls1.perBankWrBursts::2             6942                       # Per bank write bursts
system.mem_ctrls1.perBankWrBursts::3             3763                       # Per bank write bursts
system.mem_ctrls1.perBankWrBursts::4             3304                       # Per bank write bursts
system.mem_ctrls1.perBankWrBursts::5             3225                       # Per bank write bursts
system.mem_ctrls1.perBankWrBursts::6             1568                       # Per bank write bursts
system.mem_ctrls1.perBankWrBursts::7             2125                       # Per bank write bursts
system.mem_ctrls1.perBankWrBursts::8             1716                       # Per bank write bursts
system.mem_ctrls1.perBankWrBursts::9             4665                       # Per bank write bursts
system.mem_ctrls1.perBankWrBursts::10            7126                       # Per bank write bursts
system.mem_ctrls1.perBankWrBursts::11            4992                       # Per bank write bursts
system.mem_ctrls1.perBankWrBursts::12            6498                       # Per bank write bursts
system.mem_ctrls1.perBankWrBursts::13            6149                       # Per bank write bursts
system.mem_ctrls1.perBankWrBursts::14            4842                       # Per bank write bursts
system.mem_ctrls1.perBankWrBursts::15            6711                       # Per bank write bursts
system.mem_ctrls1.numRdRetry                        0                       # Number of times read queue was full causing retry
system.mem_ctrls1.numWrRetry                        0                       # Number of times write queue was full causing retry
system.mem_ctrls1.totGap                 1417275958014                       # Total gap between requests
system.mem_ctrls1.readPktSize::0                    0                       # Read request sizes (log2)
system.mem_ctrls1.readPktSize::1                    0                       # Read request sizes (log2)
system.mem_ctrls1.readPktSize::2                    0                       # Read request sizes (log2)
system.mem_ctrls1.readPktSize::3                    0                       # Read request sizes (log2)
system.mem_ctrls1.readPktSize::4                    0                       # Read request sizes (log2)
system.mem_ctrls1.readPktSize::5                    0                       # Read request sizes (log2)
system.mem_ctrls1.readPktSize::6              1089914                       # Read request sizes (log2)
system.mem_ctrls1.writePktSize::0                   0                       # Write request sizes (log2)
system.mem_ctrls1.writePktSize::1                   0                       # Write request sizes (log2)
system.mem_ctrls1.writePktSize::2                   0                       # Write request sizes (log2)
system.mem_ctrls1.writePktSize::3                   0                       # Write request sizes (log2)
system.mem_ctrls1.writePktSize::4                   0                       # Write request sizes (log2)
system.mem_ctrls1.writePktSize::5                   0                       # Write request sizes (log2)
system.mem_ctrls1.writePktSize::6               78110                       # Write request sizes (log2)
system.mem_ctrls1.rdQLenPdf::0                1037827                       # What read queue length does an incoming req see
system.mem_ctrls1.rdQLenPdf::1                  42129                       # What read queue length does an incoming req see
system.mem_ctrls1.rdQLenPdf::2                   3093                       # What read queue length does an incoming req see
system.mem_ctrls1.rdQLenPdf::3                    223                       # What read queue length does an incoming req see
system.mem_ctrls1.rdQLenPdf::4                      0                       # What read queue length does an incoming req see
system.mem_ctrls1.rdQLenPdf::5                      0                       # What read queue length does an incoming req see
system.mem_ctrls1.rdQLenPdf::6                      0                       # What read queue length does an incoming req see
system.mem_ctrls1.rdQLenPdf::7                      0                       # What read queue length does an incoming req see
system.mem_ctrls1.rdQLenPdf::8                      0                       # What read queue length does an incoming req see
system.mem_ctrls1.rdQLenPdf::9                      0                       # What read queue length does an incoming req see
system.mem_ctrls1.rdQLenPdf::10                     0                       # What read queue length does an incoming req see
system.mem_ctrls1.rdQLenPdf::11                     0                       # What read queue length does an incoming req see
system.mem_ctrls1.rdQLenPdf::12                     0                       # What read queue length does an incoming req see
system.mem_ctrls1.rdQLenPdf::13                     0                       # What read queue length does an incoming req see
system.mem_ctrls1.rdQLenPdf::14                     0                       # What read queue length does an incoming req see
system.mem_ctrls1.rdQLenPdf::15                     0                       # What read queue length does an incoming req see
system.mem_ctrls1.rdQLenPdf::16                     0                       # What read queue length does an incoming req see
system.mem_ctrls1.rdQLenPdf::17                     0                       # What read queue length does an incoming req see
system.mem_ctrls1.rdQLenPdf::18                     0                       # What read queue length does an incoming req see
system.mem_ctrls1.rdQLenPdf::19                     0                       # What read queue length does an incoming req see
system.mem_ctrls1.rdQLenPdf::20                     0                       # What read queue length does an incoming req see
system.mem_ctrls1.rdQLenPdf::21                     0                       # What read queue length does an incoming req see
system.mem_ctrls1.rdQLenPdf::22                     0                       # What read queue length does an incoming req see
system.mem_ctrls1.rdQLenPdf::23                     0                       # What read queue length does an incoming req see
system.mem_ctrls1.rdQLenPdf::24                     0                       # What read queue length does an incoming req see
system.mem_ctrls1.rdQLenPdf::25                     0                       # What read queue length does an incoming req see
system.mem_ctrls1.rdQLenPdf::26                     0                       # What read queue length does an incoming req see
system.mem_ctrls1.rdQLenPdf::27                     0                       # What read queue length does an incoming req see
system.mem_ctrls1.rdQLenPdf::28                     0                       # What read queue length does an incoming req see
system.mem_ctrls1.rdQLenPdf::29                     0                       # What read queue length does an incoming req see
system.mem_ctrls1.rdQLenPdf::30                     0                       # What read queue length does an incoming req see
system.mem_ctrls1.rdQLenPdf::31                     0                       # What read queue length does an incoming req see
system.mem_ctrls1.wrQLenPdf::0                      2                       # What write queue length does an incoming req see
system.mem_ctrls1.wrQLenPdf::1                      2                       # What write queue length does an incoming req see
system.mem_ctrls1.wrQLenPdf::2                      2                       # What write queue length does an incoming req see
system.mem_ctrls1.wrQLenPdf::3                      2                       # What write queue length does an incoming req see
system.mem_ctrls1.wrQLenPdf::4                      2                       # What write queue length does an incoming req see
system.mem_ctrls1.wrQLenPdf::5                      2                       # What write queue length does an incoming req see
system.mem_ctrls1.wrQLenPdf::6                      2                       # What write queue length does an incoming req see
system.mem_ctrls1.wrQLenPdf::7                      2                       # What write queue length does an incoming req see
system.mem_ctrls1.wrQLenPdf::8                      2                       # What write queue length does an incoming req see
system.mem_ctrls1.wrQLenPdf::9                      2                       # What write queue length does an incoming req see
system.mem_ctrls1.wrQLenPdf::10                     2                       # What write queue length does an incoming req see
system.mem_ctrls1.wrQLenPdf::11                     2                       # What write queue length does an incoming req see
system.mem_ctrls1.wrQLenPdf::12                     2                       # What write queue length does an incoming req see
system.mem_ctrls1.wrQLenPdf::13                     2                       # What write queue length does an incoming req see
system.mem_ctrls1.wrQLenPdf::14                     2                       # What write queue length does an incoming req see
system.mem_ctrls1.wrQLenPdf::15                  3466                       # What write queue length does an incoming req see
system.mem_ctrls1.wrQLenPdf::16                  3520                       # What write queue length does an incoming req see
system.mem_ctrls1.wrQLenPdf::17                  4423                       # What write queue length does an incoming req see
system.mem_ctrls1.wrQLenPdf::18                  4436                       # What write queue length does an incoming req see
system.mem_ctrls1.wrQLenPdf::19                  4435                       # What write queue length does an incoming req see
system.mem_ctrls1.wrQLenPdf::20                  4436                       # What write queue length does an incoming req see
system.mem_ctrls1.wrQLenPdf::21                  4436                       # What write queue length does an incoming req see
system.mem_ctrls1.wrQLenPdf::22                  4435                       # What write queue length does an incoming req see
system.mem_ctrls1.wrQLenPdf::23                  4433                       # What write queue length does an incoming req see
system.mem_ctrls1.wrQLenPdf::24                  4435                       # What write queue length does an incoming req see
system.mem_ctrls1.wrQLenPdf::25                  4434                       # What write queue length does an incoming req see
system.mem_ctrls1.wrQLenPdf::26                  4434                       # What write queue length does an incoming req see
system.mem_ctrls1.wrQLenPdf::27                  4433                       # What write queue length does an incoming req see
system.mem_ctrls1.wrQLenPdf::28                  4436                       # What write queue length does an incoming req see
system.mem_ctrls1.wrQLenPdf::29                  4437                       # What write queue length does an incoming req see
system.mem_ctrls1.wrQLenPdf::30                  4446                       # What write queue length does an incoming req see
system.mem_ctrls1.wrQLenPdf::31                  4433                       # What write queue length does an incoming req see
system.mem_ctrls1.wrQLenPdf::32                  4433                       # What write queue length does an incoming req see
system.mem_ctrls1.wrQLenPdf::33                     0                       # What write queue length does an incoming req see
system.mem_ctrls1.wrQLenPdf::34                     0                       # What write queue length does an incoming req see
system.mem_ctrls1.wrQLenPdf::35                     0                       # What write queue length does an incoming req see
system.mem_ctrls1.wrQLenPdf::36                     0                       # What write queue length does an incoming req see
system.mem_ctrls1.wrQLenPdf::37                     0                       # What write queue length does an incoming req see
system.mem_ctrls1.wrQLenPdf::38                     0                       # What write queue length does an incoming req see
system.mem_ctrls1.wrQLenPdf::39                     0                       # What write queue length does an incoming req see
system.mem_ctrls1.wrQLenPdf::40                     0                       # What write queue length does an incoming req see
system.mem_ctrls1.wrQLenPdf::41                     0                       # What write queue length does an incoming req see
system.mem_ctrls1.wrQLenPdf::42                     0                       # What write queue length does an incoming req see
system.mem_ctrls1.wrQLenPdf::43                     0                       # What write queue length does an incoming req see
system.mem_ctrls1.wrQLenPdf::44                     0                       # What write queue length does an incoming req see
system.mem_ctrls1.wrQLenPdf::45                     0                       # What write queue length does an incoming req see
system.mem_ctrls1.wrQLenPdf::46                     0                       # What write queue length does an incoming req see
system.mem_ctrls1.wrQLenPdf::47                     0                       # What write queue length does an incoming req see
system.mem_ctrls1.wrQLenPdf::48                     0                       # What write queue length does an incoming req see
system.mem_ctrls1.wrQLenPdf::49                     0                       # What write queue length does an incoming req see
system.mem_ctrls1.wrQLenPdf::50                     0                       # What write queue length does an incoming req see
system.mem_ctrls1.wrQLenPdf::51                     0                       # What write queue length does an incoming req see
system.mem_ctrls1.wrQLenPdf::52                     0                       # What write queue length does an incoming req see
system.mem_ctrls1.wrQLenPdf::53                     0                       # What write queue length does an incoming req see
system.mem_ctrls1.wrQLenPdf::54                     0                       # What write queue length does an incoming req see
system.mem_ctrls1.wrQLenPdf::55                     0                       # What write queue length does an incoming req see
system.mem_ctrls1.wrQLenPdf::56                     0                       # What write queue length does an incoming req see
system.mem_ctrls1.wrQLenPdf::57                     0                       # What write queue length does an incoming req see
system.mem_ctrls1.wrQLenPdf::58                     0                       # What write queue length does an incoming req see
system.mem_ctrls1.wrQLenPdf::59                     0                       # What write queue length does an incoming req see
system.mem_ctrls1.wrQLenPdf::60                     0                       # What write queue length does an incoming req see
system.mem_ctrls1.wrQLenPdf::61                     0                       # What write queue length does an incoming req see
system.mem_ctrls1.wrQLenPdf::62                     0                       # What write queue length does an incoming req see
system.mem_ctrls1.wrQLenPdf::63                     0                       # What write queue length does an incoming req see
system.mem_ctrls1.bytesPerActivate::samples       440724                       # Bytes accessed per row activation
system.mem_ctrls1.bytesPerActivate::mean   168.627404                       # Bytes accessed per row activation
system.mem_ctrls1.bytesPerActivate::gmean   120.121945                       # Bytes accessed per row activation
system.mem_ctrls1.bytesPerActivate::stdev   168.881246                       # Bytes accessed per row activation
system.mem_ctrls1.bytesPerActivate::0-127       228536     51.85%     51.85% # Bytes accessed per row activation
system.mem_ctrls1.bytesPerActivate::128-255       107283     24.34%     76.20% # Bytes accessed per row activation
system.mem_ctrls1.bytesPerActivate::256-383        48387     10.98%     87.18% # Bytes accessed per row activation
system.mem_ctrls1.bytesPerActivate::384-511        30380      6.89%     94.07% # Bytes accessed per row activation
system.mem_ctrls1.bytesPerActivate::512-639        15291      3.47%     97.54% # Bytes accessed per row activation
system.mem_ctrls1.bytesPerActivate::640-767         3678      0.83%     98.37% # Bytes accessed per row activation
system.mem_ctrls1.bytesPerActivate::768-895         1583      0.36%     98.73% # Bytes accessed per row activation
system.mem_ctrls1.bytesPerActivate::896-1023         1463      0.33%     99.06% # Bytes accessed per row activation
system.mem_ctrls1.bytesPerActivate::1024-1151         4123      0.94%    100.00% # Bytes accessed per row activation
system.mem_ctrls1.bytesPerActivate::total       440724                       # Bytes accessed per row activation
system.mem_ctrls1.rdPerTurnAround::samples         4433                       # Reads before turning the bus around for writes
system.mem_ctrls1.rdPerTurnAround::mean    244.329799                       # Reads before turning the bus around for writes
system.mem_ctrls1.rdPerTurnAround::gmean   172.769458                       # Reads before turning the bus around for writes
system.mem_ctrls1.rdPerTurnAround::stdev   506.457717                       # Reads before turning the bus around for writes
system.mem_ctrls1.rdPerTurnAround::0-1023         4329     97.65%     97.65% # Reads before turning the bus around for writes
system.mem_ctrls1.rdPerTurnAround::1024-2047           98      2.21%     99.86% # Reads before turning the bus around for writes
system.mem_ctrls1.rdPerTurnAround::2048-3071            5      0.11%     99.98% # Reads before turning the bus around for writes
system.mem_ctrls1.rdPerTurnAround::28672-29695            1      0.02%    100.00% # Reads before turning the bus around for writes
system.mem_ctrls1.rdPerTurnAround::total         4433                       # Reads before turning the bus around for writes
system.mem_ctrls1.wrPerTurnAround::samples         4433                       # Writes before turning the bus around for reads
system.mem_ctrls1.wrPerTurnAround::mean     17.583803                       # Writes before turning the bus around for reads
system.mem_ctrls1.wrPerTurnAround::gmean    17.563131                       # Writes before turning the bus around for reads
system.mem_ctrls1.wrPerTurnAround::stdev     0.844273                       # Writes before turning the bus around for reads
system.mem_ctrls1.wrPerTurnAround::16             914     20.62%     20.62% # Writes before turning the bus around for reads
system.mem_ctrls1.wrPerTurnAround::17              53      1.20%     21.81% # Writes before turning the bus around for reads
system.mem_ctrls1.wrPerTurnAround::18            3443     77.67%     99.48% # Writes before turning the bus around for reads
system.mem_ctrls1.wrPerTurnAround::19              22      0.50%     99.98% # Writes before turning the bus around for reads
system.mem_ctrls1.wrPerTurnAround::32               1      0.02%    100.00% # Writes before turning the bus around for reads
system.mem_ctrls1.wrPerTurnAround::total         4433                       # Writes before turning the bus around for reads
system.mem_ctrls1.totQLat                 36409963794                       # Total ticks spent queuing
system.mem_ctrls1.totMemAccLat            56721313794                       # Total ticks spent from burst creation until serviced by the DRAM
system.mem_ctrls1.totBusLat                5416360000                       # Total ticks spent in databus transfers
system.mem_ctrls1.avgQLat                    33611.10                       # Average queueing delay per DRAM burst
system.mem_ctrls1.avgBusLat                   5000.00                       # Average bus latency per DRAM burst
system.mem_ctrls1.avgMemAccLat               52361.10                       # Average memory access latency per DRAM burst
system.mem_ctrls1.avgRdBW                       48.92                       # Average DRAM read bandwidth in MiByte/s
system.mem_ctrls1.avgWrBW                        3.52                       # Average achieved write bandwidth in MiByte/s
system.mem_ctrls1.avgRdBWSys                    49.22                       # Average system read bandwidth in MiByte/s
system.mem_ctrls1.avgWrBWSys                     3.53                       # Average system write bandwidth in MiByte/s
system.mem_ctrls1.peakBW                     12800.00                       # Theoretical peak bandwidth in MiByte/s
system.mem_ctrls1.busUtil                        0.41                       # Data bus utilization in percentage
system.mem_ctrls1.busUtilRead                    0.38                       # Data bus utilization in percentage for reads
system.mem_ctrls1.busUtilWrite                   0.03                       # Data bus utilization in percentage for writes
system.mem_ctrls1.avgRdQLen                      1.01                       # Average read queue length when enqueuing
system.mem_ctrls1.avgWrQLen                     24.36                       # Average write queue length when enqueuing
system.mem_ctrls1.readRowHits                  681142                       # Number of row buffer hits during reads
system.mem_ctrls1.writeRowHits                  39355                       # Number of row buffer hits during writes
system.mem_ctrls1.readRowHitRate                62.88                       # Row buffer hit rate for reads
system.mem_ctrls1.writeRowHitRate               50.47                       # Row buffer hit rate for writes
system.mem_ctrls1.avgGap                   1213396.26                       # Average gap between requests
system.mem_ctrls1.pageHitRate                   62.05                       # Row buffer hit rate, read and write combined
system.mem_ctrls1_0.actEnergy              1701247800                       # Energy for activate commands per rank (pJ)
system.mem_ctrls1_0.preEnergy               904234650                       # Energy for precharge commands per rank (pJ)
system.mem_ctrls1_0.readEnergy             4032572040                       # Energy for read commands per rank (pJ)
system.mem_ctrls1_0.writeEnergy             184005000                       # Energy for write commands per rank (pJ)
system.mem_ctrls1_0.refreshEnergy        82474853760.000015                       # Energy for refresh commands per rank (pJ)
system.mem_ctrls1_0.actBackEnergy         25523182410                       # Energy for active background per rank (pJ)
system.mem_ctrls1_0.preBackEnergy          3387015360                       # Energy for precharge background per rank (pJ)
system.mem_ctrls1_0.actPowerDownEnergy   268294262160                       # Energy for active power-down per rank (pJ)
system.mem_ctrls1_0.prePowerDownEnergy    99519761760                       # Energy for precharge power-down per rank (pJ)
system.mem_ctrls1_0.selfRefreshEnergy    131299769580                       # Energy for self refresh per rank (pJ)
system.mem_ctrls1_0.totalEnergy          617352704940                       # Total energy per rank (pJ)
system.mem_ctrls1_0.averagePower           435.574502                       # Core power per rank (mW)
system.mem_ctrls1_0.totalIdleTime        1352424301635                       # Total Idle time Per DRAM Rank
system.mem_ctrls1_0.memoryStateTime::IDLE   5515448392                       # Time in different power states
system.mem_ctrls1_0.memoryStateTime::REF  35000478000                       # Time in different power states
system.mem_ctrls1_0.memoryStateTime::SREF 504936133747                       # Time in different power states
system.mem_ctrls1_0.memoryStateTime::PRE_PDN 259165431513                       # Time in different power states
system.mem_ctrls1_0.memoryStateTime::ACT  24347378750                       # Time in different power states
system.mem_ctrls1_0.memoryStateTime::ACT_PDN 588364884095                       # Time in different power states
system.mem_ctrls1_1.actEnergy              1445521560                       # Energy for activate commands per rank (pJ)
system.mem_ctrls1_1.preEnergy               768312930                       # Energy for precharge commands per rank (pJ)
system.mem_ctrls1_1.readEnergy             3701990040                       # Energy for read commands per rank (pJ)
system.mem_ctrls1_1.writeEnergy             222888780                       # Energy for write commands per rank (pJ)
system.mem_ctrls1_1.refreshEnergy        76951084080.000015                       # Energy for refresh commands per rank (pJ)
system.mem_ctrls1_1.actBackEnergy         24473866560                       # Energy for active background per rank (pJ)
system.mem_ctrls1_1.preBackEnergy          3202176000                       # Energy for precharge background per rank (pJ)
system.mem_ctrls1_1.actPowerDownEnergy   246931283460                       # Energy for active power-down per rank (pJ)
system.mem_ctrls1_1.prePowerDownEnergy    92878453920                       # Energy for precharge power-down per rank (pJ)
system.mem_ctrls1_1.selfRefreshEnergy    147128768895                       # Energy for self refresh per rank (pJ)
system.mem_ctrls1_1.totalEnergy          597731189895                       # Total energy per rank (pJ)
system.mem_ctrls1_1.averagePower           421.730501                       # Core power per rank (mW)
system.mem_ctrls1_1.totalIdleTime        1355210157469                       # Total Idle time Per DRAM Rank
system.mem_ctrls1_1.memoryStateTime::IDLE   5272303091                       # Time in different power states
system.mem_ctrls1_1.memoryStateTime::REF  32661248000                       # Time in different power states
system.mem_ctrls1_1.memoryStateTime::SREF 571873307747                       # Time in different power states
system.mem_ctrls1_1.memoryStateTime::PRE_PDN 241870095897                       # Time in different power states
system.mem_ctrls1_1.memoryStateTime::ACT  24137182807                       # Time in different power states
system.mem_ctrls1_1.memoryStateTime::ACT_PDN 541515616955                       # Time in different power states
system.pwrStateResidencyTicks::UNDEFINED 734369770308483                       # Cumulative time (in ticks) in various power states
system.cpu.branchPred.lookups                       4                       # Number of BP lookups
system.cpu.branchPred.condPredicted                 4                       # Number of conditional branches predicted
system.cpu.branchPred.condIncorrect                 4                       # Number of conditional branches incorrect
system.cpu.branchPred.BTBLookups                    0                       # Number of BTB lookups
system.cpu.branchPred.BTBHits                       0                       # Number of BTB hits
system.cpu.branchPred.BTBCorrect                    0                       # Number of correct BTB predictions (this stat may not work properly.
system.cpu.branchPred.BTBHitPct                   nan                       # BTB Hit Percentage
system.cpu.branchPred.usedRAS                       0                       # Number of times the RAS was used to get a target.
system.cpu.branchPred.RASInCorrect                  0                       # Number of incorrect RAS predictions.
system.cpu.branchPred.indirectLookups               0                       # Number of indirect predictor lookups.
system.cpu.branchPred.indirectHits                  0                       # Number of indirect target hits.
system.cpu.branchPred.indirectMisses                0                       # Number of indirect misses.
system.cpu.branchPredindirectMispredicted            0                       # Number of mispredicted indirect branches.
system.cpu_voltage_domain.voltage                   1                       # Voltage in Volts
system.cpu_clk_domain.clock                       333                       # Clock period in ticks
system.cpu.dtb.fetch_hits                           0                       # ITB hits
system.cpu.dtb.fetch_misses                         0                       # ITB misses
system.cpu.dtb.fetch_acv                            0                       # ITB acv
system.cpu.dtb.fetch_accesses                       0                       # ITB accesses
system.cpu.dtb.read_hits                           39                       # DTB read hits
system.cpu.dtb.read_misses                          0                       # DTB read misses
system.cpu.dtb.read_acv                             0                       # DTB read access violations
system.cpu.dtb.read_accesses                       39                       # DTB read accesses
system.cpu.dtb.write_hits                           0                       # DTB write hits
system.cpu.dtb.write_misses                         0                       # DTB write misses
system.cpu.dtb.write_acv                            0                       # DTB write access violations
system.cpu.dtb.write_accesses                       0                       # DTB write accesses
system.cpu.dtb.data_hits                           39                       # DTB hits
system.cpu.dtb.data_misses                          0                       # DTB misses
system.cpu.dtb.data_acv                             0                       # DTB access violations
system.cpu.dtb.data_accesses                       39                       # DTB accesses
system.cpu.itb.fetch_hits                          15                       # ITB hits
system.cpu.itb.fetch_misses                         0                       # ITB misses
system.cpu.itb.fetch_acv                            0                       # ITB acv
system.cpu.itb.fetch_accesses                      15                       # ITB accesses
system.cpu.itb.read_hits                            0                       # DTB read hits
system.cpu.itb.read_misses                          0                       # DTB read misses
system.cpu.itb.read_acv                             0                       # DTB read access violations
system.cpu.itb.read_accesses                        0                       # DTB read accesses
system.cpu.itb.write_hits                           0                       # DTB write hits
system.cpu.itb.write_misses                         0                       # DTB write misses
system.cpu.itb.write_acv                            0                       # DTB write access violations
system.cpu.itb.write_accesses                       0                       # DTB write accesses
system.cpu.itb.data_hits                            0                       # DTB hits
system.cpu.itb.data_misses                          0                       # DTB misses
system.cpu.itb.data_acv                             0                       # DTB access violations
system.cpu.itb.data_accesses                        0                       # DTB accesses
system.cpu.workload.num_syscalls                   44                       # Number of system calls
system.cpu.pwrStateResidencyTicks::ON    1417329754497                       # Cumulative time (in ticks) in various power states
system.cpu.numCycles                              738                       # number of cpu cycles simulated
system.cpu.numWorkItemsStarted                      0                       # number of work items this cpu started
system.cpu.numWorkItemsCompleted                    0                       # number of work items this cpu completed
system.cpu.fetch.icacheStallCycles                 65                       # Number of cycles fetch is stalled on an Icache miss
system.cpu.fetch.Insts                            104                       # Number of instructions fetch has processed
system.cpu.fetch.Branches                           4                       # Number of branches that fetch encountered
system.cpu.fetch.Cycles                            13                       # Number of cycles fetch has run and was not squashing or blocked
system.cpu.fetch.SquashCycles                      11                       # Number of cycles fetch has spent squashing
system.cpu.fetch.PendingDrainCycles                16                       # Number of cycles fetch has spent waiting on pipes to drain
system.cpu.fetch.CacheLines                        15                       # Number of cache lines fetched
system.cpu.fetch.IcacheSquashes                     5                       # Number of outstanding Icache misses that were squashed
system.cpu.fetch.rateDist::samples                 99                       # Number of instructions fetched each cycle (Total)
system.cpu.fetch.rateDist::mean              1.050505                       # Number of instructions fetched each cycle (Total)
system.cpu.fetch.rateDist::stdev             2.715690                       # Number of instructions fetched each cycle (Total)
system.cpu.fetch.rateDist::underflows               0      0.00%      0.00% # Number of instructions fetched each cycle (Total)
system.cpu.fetch.rateDist::0                       86     86.87%     86.87% # Number of instructions fetched each cycle (Total)
system.cpu.fetch.rateDist::1                        0      0.00%     86.87% # Number of instructions fetched each cycle (Total)
system.cpu.fetch.rateDist::2                        0      0.00%     86.87% # Number of instructions fetched each cycle (Total)
system.cpu.fetch.rateDist::3                        0      0.00%     86.87% # Number of instructions fetched each cycle (Total)
system.cpu.fetch.rateDist::4                        0      0.00%     86.87% # Number of instructions fetched each cycle (Total)
system.cpu.fetch.rateDist::5                        0      0.00%     86.87% # Number of instructions fetched each cycle (Total)
[...]
system.switch_cpus_1.iq.int_inst_queue_wakeup_accesses    115263354                       # Number of integer instruction queue wakeup accesses
system.switch_cpus_1.iq.fp_inst_queue_reads    210541305                       # Number of floating instruction queue reads
system.switch_cpus_1.iq.fp_inst_queue_writes    113938863                       # Number of floating instruction queue writes
system.switch_cpus_1.iq.fp_inst_queue_wakeup_accesses    101075022                       # Number of floating instruction queue wakeup accesses
system.switch_cpus_1.iq.int_alu_accesses    118858383                       # Number of integer alu accesses
system.switch_cpus_1.iq.fp_alu_accesses     107698172                       # Number of floating point alu accesses
system.switch_cpus_1.iew.lsq.thread0.forwLoads       570892                       # Number of loads that had data forwarded from stores
system.switch_cpus_1.iew.lsq.thread0.invAddrLoads            0                       # Number of loads ignored due to an invalid address
system.switch_cpus_1.iew.lsq.thread0.squashedLoads      6566355                       # Number of loads squashed
system.switch_cpus_1.iew.lsq.thread0.ignoredResponses         7997                       # Number of memory responses ignored because the instruction is squashed
system.switch_cpus_1.iew.lsq.thread0.memOrderViolation         2150                       # Number of memory ordering violations
system.switch_cpus_1.iew.lsq.thread0.squashedStores       673616                       # Number of stores squashed
system.switch_cpus_1.iew.lsq.thread0.invAddrSwpfs            0                       # Number of software prefetches ignored due to an invalid address
system.switch_cpus_1.iew.lsq.thread0.blockedLoads            0                       # Number of blocked loads due to partial load-store forwarding
system.switch_cpus_1.iew.lsq.thread0.rescheduledLoads          153                       # Number of loads that were rescheduled
system.switch_cpus_1.iew.lsq.thread0.cacheBlocked      2032325                       # Number of times an access to memory failed due to the cache being blocked
system.switch_cpus_1.iew.iewIdleCycles              0                       # Number of cycles IEW is idle
system.switch_cpus_1.iew.iewSquashCycles       510518                       # Number of cycles IEW is squashing
system.switch_cpus_1.iew.iewBlockCycles      54856431                       # Number of cycles IEW is blocking
system.switch_cpus_1.iew.iewUnblockCycles     30568386                       # Number of cycles IEW is unblocking
system.switch_cpus_1.iew.iewDispatchedInsts    228175284                       # Number of instructions dispatched to IQ
system.switch_cpus_1.iew.iewDispSquashedInsts       323585                       # Number of squashed instructions skipped by dispatch
system.switch_cpus_1.iew.iewDispLoadInsts     49867452                       # Number of dispatched load instructions
system.switch_cpus_1.iew.iewDispStoreInsts      4056720                       # Number of dispatched store instructions
system.switch_cpus_1.iew.iewDispNonSpecInsts         3531                       # Number of dispatched non-speculative instructions
system.switch_cpus_1.iew.iewIQFullEvents       786411                       # Number of times the IQ has become full, causing a stall
system.switch_cpus_1.iew.iewLSQFullEvents     29275314                       # Number of times the LSQ has become full, causing a stall
system.switch_cpus_1.iew.memOrderViolationEvents         2150                       # Number of memory order violations
system.switch_cpus_1.iew.predictedTakenIncorrect       406227                       # Number of branches that were predicted taken incorrectly
system.switch_cpus_1.iew.predictedNotTakenIncorrect       105082                       # Number of branches that were predicted not taken incorrectly
system.switch_cpus_1.iew.branchMispredicts       511309                       # Number of branch mispredicts detected at execute
system.switch_cpus_1.iew.iewExecutedInsts    219754878                       # Number of executed instructions
system.switch_cpus_1.iew.iewExecLoadInsts     50279003                       # Number of load instructions executed
system.switch_cpus_1.iew.iewExecSquashedInsts      1017237                       # Number of squashed instructions skipped in execute
system.switch_cpus_1.iew.exec_swp                   0                       # number of swp insts executed
system.switch_cpus_1.iew.exec_nop             2131999                       # number of nop insts executed
system.switch_cpus_1.iew.exec_refs           54085964                       # number of memory reference insts executed
system.switch_cpus_1.iew.exec_branches       18017710                       # Number of branches executed
system.switch_cpus_1.iew.exec_stores          3806961                       # Number of stores executed
system.switch_cpus_1.iew.exec_rate           0.991182                       # Inst execution rate
system.switch_cpus_1.iew.wb_sent            217092454                       # cumulative count of insts sent to commit
system.switch_cpus_1.iew.wb_count           216338376                       # cumulative count of insts written-back
system.switch_cpus_1.iew.wb_producers       160230313                       # num instructions producing a value
system.switch_cpus_1.iew.wb_consumers       204352564                       # num instructions consuming a value
system.switch_cpus_1.iew.wb_rate             0.975772                       # insts written-back per cycle
system.switch_cpus_1.iew.wb_fanout           0.784088                       # average fanout of values written-back
system.switch_cpus_1.commit.commitSquashedInsts     25085323                       # The number of squashed insts skipped by commit
system.switch_cpus_1.commit.commitNonSpecStalls         4876                       # The number of times commit has been forced to stall to communicate backwards
system.switch_cpus_1.commit.branchMispredicts       437622                       # The number of times a branch was mispredicted
system.switch_cpus_1.commit.committed_per_cycle::samples    217921309                       # Number of insts commited each cycle
system.switch_cpus_1.commit.committed_per_cycle::mean     0.925505                       # Number of insts commited each cycle
system.switch_cpus_1.commit.committed_per_cycle::stdev     2.356007                       # Number of insts commited each cycle
system.switch_cpus_1.commit.committed_per_cycle::underflows            0      0.00%      0.00% # Number of insts commited each cycle
system.switch_cpus_1.commit.committed_per_cycle::0    180684175     82.91%     82.91% # Number of insts commited each cycle
system.switch_cpus_1.commit.committed_per_cycle::1      6826256      3.13%     86.05% # Number of insts commited each cycle
system.switch_cpus_1.commit.committed_per_cycle::2      3521977      1.62%     87.66% # Number of insts commited each cycle
system.switch_cpus_1.commit.committed_per_cycle::3      1385768      0.64%     88.30% # Number of insts commited each cycle
system.switch_cpus_1.commit.committed_per_cycle::4      1739252      0.80%     89.10% # Number of insts commited each cycle
system.switch_cpus_1.commit.committed_per_cycle::5      1114927      0.51%     89.61% # Number of insts commited each cycle
system.switch_cpus_1.commit.committed_per_cycle::6      4312540      1.98%     91.59% # Number of insts commited each cycle
system.switch_cpus_1.commit.committed_per_cycle::7      1438345      0.66%     92.25% # Number of insts commited each cycle
system.switch_cpus_1.commit.committed_per_cycle::8     16898069      7.75%    100.00% # Number of insts commited each cycle
system.switch_cpus_1.commit.committed_per_cycle::overflows            0      0.00%    100.00% # Number of insts commited each cycle
system.switch_cpus_1.commit.committed_per_cycle::min_value            0                       # Number of insts commited each cycle
system.switch_cpus_1.commit.committed_per_cycle::max_value            8                       # Number of insts commited each cycle
system.switch_cpus_1.commit.committed_per_cycle::total    217921309                       # Number of insts commited each cycle
system.switch_cpus_1.commit.committedInsts    201687364                       # Number of instructions committed
system.switch_cpus_1.commit.committedOps    201687364                       # Number of ops (including micro ops) committed
system.switch_cpus_1.commit.swp_count               0                       # Number of s/w prefetches committed
system.switch_cpus_1.commit.refs             46684198                       # Number of memory references committed
system.switch_cpus_1.commit.loads            43301094                       # Number of loads committed
system.switch_cpus_1.commit.membars              2438                       # Number of memory barriers committed
system.switch_cpus_1.commit.branches         16053531                       # Number of branches committed
system.switch_cpus_1.commit.fp_insts         97819303                       # Number of committed floating point instructions.
system.switch_cpus_1.commit.int_insts       136497010                       # Number of committed integer instructions.
system.switch_cpus_1.commit.function_calls       279259                       # Number of function calls committed.
system.switch_cpus_1.commit.op_class_0::No_OpClass      1687643      0.84%      0.84% # Class of committed instruction
system.switch_cpus_1.commit.op_class_0::IntAlu     89863699     44.56%     45.39% # Class of committed instruction
system.switch_cpus_1.commit.op_class_0::IntMult          759      0.00%     45.39% # Class of committed instruction
system.switch_cpus_1.commit.op_class_0::IntDiv            0      0.00%     45.39% # Class of committed instruction
system.switch_cpus_1.commit.op_class_0::FloatAdd     37891739     18.79%     64.18% # Class of committed instruction
system.switch_cpus_1.commit.op_class_0::FloatCmp       635720      0.32%     64.50% # Class of committed instruction
system.switch_cpus_1.commit.op_class_0::FloatCvt       230023      0.11%     64.61% # Class of committed instruction
system.switch_cpus_1.commit.op_class_0::FloatMult     24664631     12.23%     76.84% # Class of committed instruction
system.switch_cpus_1.commit.op_class_0::FloatMultAcc            0      0.00%     76.84% # Class of committed instruction
system.switch_cpus_1.commit.op_class_0::FloatDiv        26514      0.01%     76.85% # Class of committed instruction
system.switch_cpus_1.commit.op_class_0::FloatMisc            0      0.00%     76.85% # Class of committed instruction
system.switch_cpus_1.commit.op_class_0::FloatSqrt            0      0.00%     76.85% # Class of committed instruction
system.switch_cpus_1.commit.op_class_0::SimdAdd            0      0.00%     76.85% # Class of committed instruction
system.switch_cpus_1.commit.op_class_0::SimdAddAcc            0      0.00%     76.85% # Class of committed instruction
system.switch_cpus_1.commit.op_class_0::SimdAlu            0      0.00%     76.85% # Class of committed instruction
system.switch_cpus_1.commit.op_class_0::SimdCmp            0      0.00%     76.85% # Class of committed instruction
system.switch_cpus_1.commit.op_class_0::SimdCvt            0      0.00%     76.85% # Class of committed instruction
system.switch_cpus_1.commit.op_class_0::SimdMisc            0      0.00%     76.85% # Class of committed instruction
system.switch_cpus_1.commit.op_class_0::SimdMult            0      0.00%     76.85% # Class of committed instruction
system.switch_cpus_1.commit.op_class_0::SimdMultAcc            0      0.00%     76.85% # Class of committed instruction
system.switch_cpus_1.commit.op_class_0::SimdShift            0      0.00%     76.85% # Class of committed instruction
system.switch_cpus_1.commit.op_class_0::SimdShiftAcc            0      0.00%     76.85% # Class of committed instruction
system.switch_cpus_1.commit.op_class_0::SimdSqrt            0      0.00%     76.85% # Class of committed instruction
system.switch_cpus_1.commit.op_class_0::SimdFloatAdd            0      0.00%     76.85% # Class of committed instruction
system.switch_cpus_1.commit.op_class_0::SimdFloatAlu            0      0.00%     76.85% # Class of committed instruction
system.switch_cpus_1.commit.op_class_0::SimdFloatCmp            0      0.00%     76.85% # Class of committed instruction
system.switch_cpus_1.commit.op_class_0::SimdFloatCvt            0      0.00%     76.85% # Class of committed instruction
system.switch_cpus_1.commit.op_class_0::SimdFloatDiv            0      0.00%     76.85% # Class of committed instruction
system.switch_cpus_1.commit.op_class_0::SimdFloatMisc            0      0.00%     76.85% # Class of committed instruction
system.switch_cpus_1.commit.op_class_0::SimdFloatMult            0      0.00%     76.85% # Class of committed instruction
system.switch_cpus_1.commit.op_class_0::SimdFloatMultAcc            0      0.00%     76.85% # Class of committed instruction
system.switch_cpus_1.commit.op_class_0::SimdFloatSqrt            0      0.00%     76.85% # Class of committed instruction
system.switch_cpus_1.commit.op_class_0::MemRead      9751532      4.83%     81.69% # Class of committed instruction
system.switch_cpus_1.commit.op_class_0::MemWrite      2564428      1.27%     82.96% # Class of committed instruction
system.switch_cpus_1.commit.op_class_0::FloatMemRead     33552000     16.64%     99.59% # Class of committed instruction
system.switch_cpus_1.commit.op_class_0::FloatMemWrite       818676      0.41%    100.00% # Class of committed instruction
system.switch_cpus_1.commit.op_class_0::IprAccess            0      0.00%    100.00% # Class of committed instruction
system.switch_cpus_1.commit.op_class_0::InstPrefetch            0      0.00%    100.00% # Class of committed instruction
system.switch_cpus_1.commit.op_class_0::total    201687364                       # Class of committed instruction
system.switch_cpus_1.commit.bw_lim_events     16898069                       # number cycles where commit BW limit reached
system.switch_cpus_1.rob.rob_reads          426871744                       # The number of ROB reads
system.switch_cpus_1.rob.rob_writes         456955347                       # The number of ROB writes
system.switch_cpus_1.timesIdled                  2435                       # Number of times that the entire CPU went into an idle state and unscheduled itself
system.switch_cpus_1.idleCycles                380778                       # Total number of cycles that the CPU has spent unscheduled due to idling
system.switch_cpus_1.committedInsts         200000005                       # Number of Instructions Simulated
system.switch_cpus_1.committedOps           200000005                       # Number of Ops (including micro ops) Simulated
system.switch_cpus_1.cpi                     1.108550                       # CPI: Cycles Per Instruction
system.switch_cpus_1.cpi_total               1.108550                       # CPI: Total CPI of All Threads
system.switch_cpus_1.ipc                     0.902079                       # IPC: Instructions Per Cycle
system.switch_cpus_1.ipc_total               0.902079                       # IPC: Total IPC of All Threads
system.switch_cpus_1.int_regfile_reads      217889457                       # number of integer regfile reads
system.switch_cpus_1.int_regfile_writes      94947686                       # number of integer regfile writes
system.switch_cpus_1.fp_regfile_reads       130234399                       # number of floating regfile reads
system.switch_cpus_1.fp_regfile_writes      100039932                       # number of floating regfile writes
system.switch_cpus_1.misc_regfile_reads        407375                       # number of misc regfile reads
system.switch_cpus_1.misc_regfile_writes         5018                       # number of misc regfile writes
system.tol3bus.snoop_filter.tot_requests     26332375                       # Total number of requests made to the snoop filter.
system.tol3bus.snoop_filter.hit_single_requests     13164908                       # Number of requests hitting in the snoop filter with a single holder of the requested data.
system.tol3bus.snoop_filter.hit_multi_requests            0                       # Number of requests hitting in the snoop filter with multiple (>1) holders of the requested data.
system.tol3bus.snoop_filter.tot_snoops           5822                       # Total number of snoops made to the snoop filter.
system.tol3bus.snoop_filter.hit_single_snoops         5822                       # Number of snoops hitting in the snoop filter with a single holder of the requested data.
system.tol3bus.snoop_filter.hit_multi_snoops            0                       # Number of snoops hitting in the snoop filter with multiple (>1) holders of the requested data.
system.tol3bus.pwrStateResidencyTicks::UNDEFINED 734369770308483                       # Cumulative time (in ticks) in various power states
system.tol3bus.trans_dist::ReadResp          12311885                       # Transaction distribution
system.tol3bus.trans_dist::WritebackDirty      1771291                       # Transaction distribution
system.tol3bus.trans_dist::CleanEvict        13510273                       # Transaction distribution
system.tol3bus.trans_dist::UpgradeReq              45                       # Transaction distribution
system.tol3bus.trans_dist::UpgradeResp             45                       # Transaction distribution
system.tol3bus.trans_dist::ReadExReq           855582                       # Transaction distribution
system.tol3bus.trans_dist::ReadExResp          855582                       # Transaction distribution
system.tol3bus.trans_dist::ReadSharedReq     12311885                       # Transaction distribution
system.tol3bus.pkt_count_system.cpu.l2.mem_side::system.l3.cpu_side     39499887                       # Packet count per connected master and slave (bytes)
system.tol3bus.pkt_size_system.cpu.l2.mem_side::system.l3.cpu_side    946055168                       # Cumulative packet size per connected master and slave (bytes)
system.tol3bus.snoops                         2116701                       # Total snoops (count)
system.tol3bus.snoopTraffic                  10025344                       # Total snoop traffic (bytes)
system.tol3bus.snoop_fanout::samples         15284213                       # Request fanout histogram
system.tol3bus.snoop_fanout::mean            0.000381                       # Request fanout histogram
system.tol3bus.snoop_fanout::stdev           0.019513                       # Request fanout histogram
system.tol3bus.snoop_fanout::underflows             0      0.00%      0.00% # Request fanout histogram
system.tol3bus.snoop_fanout::0               15278391     99.96%     99.96% # Request fanout histogram
system.tol3bus.snoop_fanout::1                   5822      0.04%    100.00% # Request fanout histogram
system.tol3bus.snoop_fanout::overflows              0      0.00%    100.00% # Request fanout histogram
system.tol3bus.snoop_fanout::min_value              0                       # Request fanout histogram
system.tol3bus.snoop_fanout::max_value              1                       # Request fanout histogram
system.tol3bus.snoop_fanout::total           15284213                       # Request fanout histogram
system.tol3bus.reqLayer0.occupancy         9306357660                       # Layer occupancy (ticks)
system.tol3bus.reqLayer0.utilization              0.7                       # Layer utilization (%)
system.tol3bus.respLayer0.occupancy        8769548007                       # Layer occupancy (ticks)
system.tol3bus.respLayer0.utilization             0.6                       # Layer utilization (%)

---------- End Simulation Statistics   ----------
