
---------- Begin Simulation Statistics ----------
sim_seconds                                  3.324150                       # Number of seconds simulated
sim_ticks                                3324150230292                       # Number of ticks simulated
final_tick                               303694370984979                       # Number of ticks from beginning of simulation (restored from checkpoints and never reset)
sim_freq                                 1000000000000                       # Frequency of simulated ticks
host_inst_rate                                 127078                       # Simulator instruction rate (inst/s)
host_op_rate                                   127078                       # Simulator op (including micro ops) rate (op/s)
host_tick_rate                              352021870                       # Simulator tick rate (ticks/s)
host_mem_usage                                2406636                       # Number of bytes of host memory used
host_seconds                                  9443.02                       # Real time elapsed on the host
sim_insts                                  1200000007                       # Number of instructions simulated
sim_ops                                    1200000007                       # Number of ops (including micro ops) simulated
system.voltage_domain.voltage                       1                       # Voltage in Volts
system.clk_domain.clock                          1000                       # Clock period in ticks
system.mem_ctrls0.pwrStateResidencyTicks::UNDEFINED 303694370984979                       # Cumulative time (in ticks) in various power states
system.mem_ctrls0.bytes_read::cpu.inst             64                       # Number of bytes read from this memory
system.mem_ctrls0.bytes_read::cpu.data             64                       # Number of bytes read from this memory
system.mem_ctrls0.bytes_read::switch_cpus.inst         3136                       # Number of bytes read from this memory
system.mem_ctrls0.bytes_read::switch_cpus.data    299338304                       # Number of bytes read from this memory
system.mem_ctrls0.bytes_read::switch_cpus_1.inst          704                       # Number of bytes read from this memory
system.mem_ctrls0.bytes_read::switch_cpus_1.data     65084224                       # Number of bytes read from this memory
system.mem_ctrls0.bytes_read::total         364426496                       # Number of bytes read from this memory
system.mem_ctrls0.bytes_inst_read::cpu.inst           64                       # Number of instructions bytes read from this memory
system.mem_ctrls0.bytes_inst_read::switch_cpus.inst         3136                       # Number of instructions bytes read from this memory
system.mem_ctrls0.bytes_inst_read::switch_cpus_1.inst          704                       # Number of instructions bytes read from this memory
system.mem_ctrls0.bytes_inst_read::total         3904                       # Number of instructions bytes read from this memory
system.mem_ctrls0.bytes_written::writebacks    208060352                       # Number of bytes written to this memory
system.mem_ctrls0.bytes_written::total      208060352                       # Number of bytes written to this memory
system.mem_ctrls0.num_reads::cpu.inst               1                       # Number of read requests responded to by this memory
system.mem_ctrls0.num_reads::cpu.data               1                       # Number of read requests responded to by this memory
system.mem_ctrls0.num_reads::switch_cpus.inst           49                       # Number of read requests responded to by this memory
system.mem_ctrls0.num_reads::switch_cpus.data      4677161                       # Number of read requests responded to by this memory
system.mem_ctrls0.num_reads::switch_cpus_1.inst           11                       # Number of read requests responded to by this memory
system.mem_ctrls0.num_reads::switch_cpus_1.data      1016941                       # Number of read requests responded to by this memory
system.mem_ctrls0.num_reads::total            5694164                       # Number of read requests responded to by this memory
system.mem_ctrls0.num_writes::writebacks      3250943                       # Number of write requests responded to by this memory
system.mem_ctrls0.num_writes::total           3250943                       # Number of write requests responded to by this memory
system.mem_ctrls0.bw_read::cpu.inst                19                       # Total read bandwidth from this memory (bytes/s)
system.mem_ctrls0.bw_read::cpu.data                19                       # Total read bandwidth from this memory (bytes/s)
system.mem_ctrls0.bw_read::switch_cpus.inst          943                       # Total read bandwidth from this memory (bytes/s)
system.mem_ctrls0.bw_read::switch_cpus.data     90049572                       # Total read bandwidth from this memory (bytes/s)
system.mem_ctrls0.bw_read::switch_cpus_1.inst          212                       # Total read bandwidth from this memory (bytes/s)
system.mem_ctrls0.bw_read::switch_cpus_1.data     19579207                       # Total read bandwidth from this memory (bytes/s)
system.mem_ctrls0.bw_read::total            109629972                       # Total read bandwidth from this memory (bytes/s)
system.mem_ctrls0.bw_inst_read::cpu.inst           19                       # Instruction read bandwidth from this memory (bytes/s)
system.mem_ctrls0.bw_inst_read::switch_cpus.inst          943                       # Instruction read bandwidth from this memory (bytes/s)
system.mem_ctrls0.bw_inst_read::switch_cpus_1.inst          212                       # Instruction read bandwidth from this memory (bytes/s)
system.mem_ctrls0.bw_inst_read::total            1174                       # Instruction read bandwidth from this memory (bytes/s)
system.mem_ctrls0.bw_write::writebacks       62590538                       # Write bandwidth from this memory (bytes/s)
system.mem_ctrls0.bw_write::total            62590538                       # Write bandwidth from this memory (bytes/s)
system.mem_ctrls0.bw_total::writebacks       62590538                       # Total bandwidth to/from this memory (bytes/s)
system.mem_ctrls0.bw_total::cpu.inst               19                       # Total bandwidth to/from this memory (bytes/s)
system.mem_ctrls0.bw_total::cpu.data               19                       # Total bandwidth to/from this memory (bytes/s)
system.mem_ctrls0.bw_total::switch_cpus.inst          943                       # Total bandwidth to/from this memory (bytes/s)
system.mem_ctrls0.bw_total::switch_cpus.data     90049572                       # Total bandwidth to/from this memory (bytes/s)
system.mem_ctrls0.bw_total::switch_cpus_1.inst          212                       # Total bandwidth to/from this memory (bytes/s)
system.mem_ctrls0.bw_total::switch_cpus_1.data     19579207                       # Total bandwidth to/from this memory (bytes/s)
system.mem_ctrls0.bw_total::total           172220510                       # Total bandwidth to/from this memory (bytes/s)
system.mem_ctrls0.readReqs                    5694164                       # Number of read requests accepted
system.mem_ctrls0.writeReqs                   3250943                       # Number of write requests accepted
system.mem_ctrls0.readBursts                  5694164                       # Number of DRAM read bursts, including those serviced by the write queue
system.mem_ctrls0.writeBursts                 3250943                       # Number of DRAM write bursts, including those merged in the write queue
system.mem_ctrls0.bytesReadDRAM             362795328                       # Total number of bytes read from DRAM
system.mem_ctrls0.bytesReadWrQ                1631168                       # Total number of bytes read from write queue
system.mem_ctrls0.bytesWritten              208059072                       # Total number of bytes written to DRAM
system.mem_ctrls0.bytesReadSys              364426496                       # Total read bytes from the system interface side
system.mem_ctrls0.bytesWrittenSys           208060352                       # Total written bytes from the system interface side
system.mem_ctrls0.servicedByWrQ                 25487                       # Number of DRAM read bursts serviced by the write queue
system.mem_ctrls0.mergedWrBursts                    0                       # Number of DRAM write bursts merged with an existing one
system.mem_ctrls0.neitherReadNorWriteReqs            0                       # Number of requests that are neither read nor write
system.mem_ctrls0.perBankRdBursts::0           371136                       # Per bank write bursts
system.mem_ctrls0.perBankRdBursts::1           314203                       # Per bank write bursts
system.mem_ctrls0.perBankRdBursts::2           396315                       # Per bank write bursts
system.mem_ctrls0.perBankRdBursts::3           264016                       # Per bank write bursts
system.mem_ctrls0.perBankRdBursts::4           316074                       # Per bank write bursts
system.mem_ctrls0.perBankRdBursts::5           358540                       # Per bank write bursts
system.mem_ctrls0.perBankRdBursts::6           347168                       # Per bank write bursts
system.mem_ctrls0.perBankRdBursts::7           466243                       # Per bank write bursts
system.mem_ctrls0.perBankRdBursts::8           389268                       # Per bank write bursts
system.mem_ctrls0.perBankRdBursts::9           307398                       # Per bank write bursts
system.mem_ctrls0.perBankRdBursts::10          394795                       # Per bank write bursts
system.mem_ctrls0.perBankRdBursts::11          277926                       # Per bank write bursts
system.mem_ctrls0.perBankRdBursts::12          295963                       # Per bank write bursts
system.mem_ctrls0.perBankRdBursts::13          346472                       # Per bank write bursts
system.mem_ctrls0.perBankRdBursts::14          344176                       # Per bank write bursts
system.mem_ctrls0.perBankRdBursts::15          478984                       # Per bank write bursts
system.mem_ctrls0.perBankWrBursts::0           212848                       # Per bank write bursts
system.mem_ctrls0.perBankWrBursts::1           174889                       # Per bank write bursts
system.mem_ctrls0.perBankWrBursts::2           226436                       # Per bank write bursts
system.mem_ctrls0.perBankWrBursts::3           155659                       # Per bank write bursts
system.mem_ctrls0.perBankWrBursts::4           186168                       # Per bank write bursts
system.mem_ctrls0.perBankWrBursts::5           200519                       # Per bank write bursts
system.mem_ctrls0.perBankWrBursts::6           190536                       # Per bank write bursts
system.mem_ctrls0.perBankWrBursts::7           258857                       # Per bank write bursts
system.mem_ctrls0.perBankWrBursts::8           224945                       # Per bank write bursts
system.mem_ctrls0.perBankWrBursts::9           170054                       # Per bank write bursts
system.mem_ctrls0.perBankWrBursts::10          226433                       # Per bank write bursts
system.mem_ctrls0.perBankWrBursts::11          161636                       # Per bank write bursts
system.mem_ctrls0.perBankWrBursts::12          178246                       # Per bank write bursts
system.mem_ctrls0.perBankWrBursts::13          209005                       # Per bank write bursts
system.mem_ctrls0.perBankWrBursts::14          204315                       # Per bank write bursts
system.mem_ctrls0.perBankWrBursts::15          270377                       # Per bank write bursts
system.mem_ctrls0.numRdRetry                        0                       # Number of times read queue was full causing retry
system.mem_ctrls0.numWrRetry                        0                       # Number of times write queue was full causing retry
system.mem_ctrls0.totGap                 3324149752104                       # Total gap between requests
system.mem_ctrls0.readPktSize::0                    0                       # Read request sizes (log2)
system.mem_ctrls0.readPktSize::1                    0                       # Read request sizes (log2)
system.mem_ctrls0.readPktSize::2                    0                       # Read request sizes (log2)
system.mem_ctrls0.readPktSize::3                    0                       # Read request sizes (log2)
system.mem_ctrls0.readPktSize::4                    0                       # Read request sizes (log2)
system.mem_ctrls0.readPktSize::5                    0                       # Read request sizes (log2)
system.mem_ctrls0.readPktSize::6              5694164                       # Read request sizes (log2)
system.mem_ctrls0.writePktSize::0                   0                       # Write request sizes (log2)
system.mem_ctrls0.writePktSize::1                   0                       # Write request sizes (log2)
system.mem_ctrls0.writePktSize::2                   0                       # Write request sizes (log2)
system.mem_ctrls0.writePktSize::3                   0                       # Write request sizes (log2)
system.mem_ctrls0.writePktSize::4                   0                       # Write request sizes (log2)
system.mem_ctrls0.writePktSize::5                   0                       # Write request sizes (log2)
system.mem_ctrls0.writePktSize::6             3250943                       # Write request sizes (log2)
system.mem_ctrls0.rdQLenPdf::0                5568874                       # What read queue length does an incoming req see
system.mem_ctrls0.rdQLenPdf::1                  91617                       # What read queue length does an incoming req see
system.mem_ctrls0.rdQLenPdf::2                   7549                       # What read queue length does an incoming req see
system.mem_ctrls0.rdQLenPdf::3                    637                       # What read queue length does an incoming req see
system.mem_ctrls0.rdQLenPdf::4                      0                       # What read queue length does an incoming req see
system.mem_ctrls0.rdQLenPdf::5                      0                       # What read queue length does an incoming req see
system.mem_ctrls0.rdQLenPdf::6                      0                       # What read queue length does an incoming req see
system.mem_ctrls0.rdQLenPdf::7                      0                       # What read queue length does an incoming req see
system.mem_ctrls0.rdQLenPdf::8                      0                       # What read queue length does an incoming req see
system.mem_ctrls0.rdQLenPdf::9                      0                       # What read queue length does an incoming req see
system.mem_ctrls0.rdQLenPdf::10                     0                       # What read queue length does an incoming req see
system.mem_ctrls0.rdQLenPdf::11                     0                       # What read queue length does an incoming req see
system.mem_ctrls0.rdQLenPdf::12                     0                       # What read queue length does an incoming req see
system.mem_ctrls0.rdQLenPdf::13                     0                       # What read queue length does an incoming req see
system.mem_ctrls0.rdQLenPdf::14                     0                       # What read queue length does an incoming req see
system.mem_ctrls0.rdQLenPdf::15                     0                       # What read queue length does an incoming req see
system.mem_ctrls0.rdQLenPdf::16                     0                       # What read queue length does an incoming req see
system.mem_ctrls0.rdQLenPdf::17                     0                       # What read queue length does an incoming req see
system.mem_ctrls0.rdQLenPdf::18                     0                       # What read queue length does an incoming req see
system.mem_ctrls0.rdQLenPdf::19                     0                       # What read queue length does an incoming req see
system.mem_ctrls0.rdQLenPdf::20                     0                       # What read queue length does an incoming req see
system.mem_ctrls0.rdQLenPdf::21                     0                       # What read queue length does an incoming req see
system.mem_ctrls0.rdQLenPdf::22                     0                       # What read queue length does an incoming req see
system.mem_ctrls0.rdQLenPdf::23                     0                       # What read queue length does an incoming req see
system.mem_ctrls0.rdQLenPdf::24                     0                       # What read queue length does an incoming req see
system.mem_ctrls0.rdQLenPdf::25                     0                       # What read queue length does an incoming req see
system.mem_ctrls0.rdQLenPdf::26                     0                       # What read queue length does an incoming req see
system.mem_ctrls0.rdQLenPdf::27                     0                       # What read queue length does an incoming req see
system.mem_ctrls0.rdQLenPdf::28                     0                       # What read queue length does an incoming req see
system.mem_ctrls0.rdQLenPdf::29                     0                       # What read queue length does an incoming req see
system.mem_ctrls0.rdQLenPdf::30                     0                       # What read queue length does an incoming req see
system.mem_ctrls0.rdQLenPdf::31                     0                       # What read queue length does an incoming req see
system.mem_ctrls0.wrQLenPdf::0                      2                       # What write queue length does an incoming req see
system.mem_ctrls0.wrQLenPdf::1                      2                       # What write queue length does an incoming req see
system.mem_ctrls0.wrQLenPdf::2                      2                       # What write queue length does an incoming req see
system.mem_ctrls0.wrQLenPdf::3                      2                       # What write queue length does an incoming req see
system.mem_ctrls0.wrQLenPdf::4                      2                       # What write queue length does an incoming req see
system.mem_ctrls0.wrQLenPdf::5                      2                       # What write queue length does an incoming req see
system.mem_ctrls0.wrQLenPdf::6                      2                       # What write queue length does an incoming req see
system.mem_ctrls0.wrQLenPdf::7                      2                       # What write queue length does an incoming req see
system.mem_ctrls0.wrQLenPdf::8                      2                       # What write queue length does an incoming req see
system.mem_ctrls0.wrQLenPdf::9                      2                       # What write queue length does an incoming req see
system.mem_ctrls0.wrQLenPdf::10                     2                       # What write queue length does an incoming req see
system.mem_ctrls0.wrQLenPdf::11                     2                       # What write queue length does an incoming req see
system.mem_ctrls0.wrQLenPdf::12                     2                       # What write queue length does an incoming req see
system.mem_ctrls0.wrQLenPdf::13                     2                       # What write queue length does an incoming req see
system.mem_ctrls0.wrQLenPdf::14                     2                       # What write queue length does an incoming req see
system.mem_ctrls0.wrQLenPdf::15                155185                       # What write queue length does an incoming req see
system.mem_ctrls0.wrQLenPdf::16                158258                       # What write queue length does an incoming req see
system.mem_ctrls0.wrQLenPdf::17                182536                       # What write queue length does an incoming req see
system.mem_ctrls0.wrQLenPdf::18                183590                       # What write queue length does an incoming req see
system.mem_ctrls0.wrQLenPdf::19                183785                       # What write queue length does an incoming req see
system.mem_ctrls0.wrQLenPdf::20                183794                       # What write queue length does an incoming req see
system.mem_ctrls0.wrQLenPdf::21                183628                       # What write queue length does an incoming req see
system.mem_ctrls0.wrQLenPdf::22                183662                       # What write queue length does an incoming req see
system.mem_ctrls0.wrQLenPdf::23                183687                       # What write queue length does an incoming req see
system.mem_ctrls0.wrQLenPdf::24                183703                       # What write queue length does an incoming req see
system.mem_ctrls0.wrQLenPdf::25                183767                       # What write queue length does an incoming req see
system.mem_ctrls0.wrQLenPdf::26                184413                       # What write queue length does an incoming req see
system.mem_ctrls0.wrQLenPdf::27                183583                       # What write queue length does an incoming req see
system.mem_ctrls0.wrQLenPdf::28                183438                       # What write queue length does an incoming req see
system.mem_ctrls0.wrQLenPdf::29                183868                       # What write queue length does an incoming req see
system.mem_ctrls0.wrQLenPdf::30                183666                       # What write queue length does an incoming req see
system.mem_ctrls0.wrQLenPdf::31                183162                       # What write queue length does an incoming req see
system.mem_ctrls0.wrQLenPdf::32                183150                       # What write queue length does an incoming req see
system.mem_ctrls0.wrQLenPdf::33                    32                       # What write queue length does an incoming req see
system.mem_ctrls0.wrQLenPdf::34                     6                       # What write queue length does an incoming req see
system.mem_ctrls0.wrQLenPdf::35                     0                       # What write queue length does an incoming req see
system.mem_ctrls0.wrQLenPdf::36                     0                       # What write queue length does an incoming req see
system.mem_ctrls0.wrQLenPdf::37                     0                       # What write queue length does an incoming req see
system.mem_ctrls0.wrQLenPdf::38                     0                       # What write queue length does an incoming req see
system.mem_ctrls0.wrQLenPdf::39                     0                       # What write queue length does an incoming req see
system.mem_ctrls0.wrQLenPdf::40                     0                       # What write queue length does an incoming req see
system.mem_ctrls0.wrQLenPdf::41                     0                       # What write queue length does an incoming req see
system.mem_ctrls0.wrQLenPdf::42                     0                       # What write queue length does an incoming req see
system.mem_ctrls0.wrQLenPdf::43                     0                       # What write queue length does an incoming req see
system.mem_ctrls0.wrQLenPdf::44                     0                       # What write queue length does an incoming req see
system.mem_ctrls0.wrQLenPdf::45                     0                       # What write queue length does an incoming req see
system.mem_ctrls0.wrQLenPdf::46                     0                       # What write queue length does an incoming req see
system.mem_ctrls0.wrQLenPdf::47                     0                       # What write queue length does an incoming req see
system.mem_ctrls0.wrQLenPdf::48                     0                       # What write queue length does an incoming req see
system.mem_ctrls0.wrQLenPdf::49                     0                       # What write queue length does an incoming req see
system.mem_ctrls0.wrQLenPdf::50                     0                       # What write queue length does an incoming req see
system.mem_ctrls0.wrQLenPdf::51                     0                       # What write queue length does an incoming req see
system.mem_ctrls0.wrQLenPdf::52                     0                       # What write queue length does an incoming req see
system.mem_ctrls0.wrQLenPdf::53                     0                       # What write queue length does an incoming req see
system.mem_ctrls0.wrQLenPdf::54                     0                       # What write queue length does an incoming req see
system.mem_ctrls0.wrQLenPdf::55                     0                       # What write queue length does an incoming req see
system.mem_ctrls0.wrQLenPdf::56                     0                       # What write queue length does an incoming req see
system.mem_ctrls0.wrQLenPdf::57                     0                       # What write queue length does an incoming req see
system.mem_ctrls0.wrQLenPdf::58                     0                       # What write queue length does an incoming req see
system.mem_ctrls0.wrQLenPdf::59                     0                       # What write queue length does an incoming req see
system.mem_ctrls0.wrQLenPdf::60                     0                       # What write queue length does an incoming req see
system.mem_ctrls0.wrQLenPdf::61                     0                       # What write queue length does an incoming req see
system.mem_ctrls0.wrQLenPdf::62                     0                       # What write queue length does an incoming req see
system.mem_ctrls0.wrQLenPdf::63                     0                       # What write queue length does an incoming req see
system.mem_ctrls0.bytesPerActivate::samples      8088135                       # Bytes accessed per row activation
system.mem_ctrls0.bytesPerActivate::mean    70.579222                       # Bytes accessed per row activation
system.mem_ctrls0.bytesPerActivate::gmean    68.299411                       # Bytes accessed per row activation
system.mem_ctrls0.bytesPerActivate::stdev    24.525054                       # Bytes accessed per row activation
system.mem_ctrls0.bytesPerActivate::64-127      7410661     91.62%     91.62% # Bytes accessed per row activation
system.mem_ctrls0.bytesPerActivate::128-191       564587      6.98%     98.60% # Bytes accessed per row activation
system.mem_ctrls0.bytesPerActivate::192-255        86326      1.07%     99.67% # Bytes accessed per row activation
system.mem_ctrls0.bytesPerActivate::256-319        18232      0.23%     99.90% # Bytes accessed per row activation
system.mem_ctrls0.bytesPerActivate::320-383         4924      0.06%     99.96% # Bytes accessed per row activation
system.mem_ctrls0.bytesPerActivate::384-447         1881      0.02%     99.98% # Bytes accessed per row activation
system.mem_ctrls0.bytesPerActivate::448-511          791      0.01%     99.99% # Bytes accessed per row activation
system.mem_ctrls0.bytesPerActivate::512-575          412      0.01%    100.00% # Bytes accessed per row activation
system.mem_ctrls0.bytesPerActivate::576-639          183      0.00%    100.00% # Bytes accessed per row activation
system.mem_ctrls0.bytesPerActivate::640-703           81      0.00%    100.00% # Bytes accessed per row activation
system.mem_ctrls0.bytesPerActivate::704-767           37      0.00%    100.00% # Bytes accessed per row activation
system.mem_ctrls0.bytesPerActivate::768-831           11      0.00%    100.00% # Bytes accessed per row activation
system.mem_ctrls0.bytesPerActivate::832-895            5      0.00%    100.00% # Bytes accessed per row activation
system.mem_ctrls0.bytesPerActivate::896-959            3      0.00%    100.00% # Bytes accessed per row activation
system.mem_ctrls0.bytesPerActivate::960-1023            1      0.00%    100.00% # Bytes accessed per row activation
system.mem_ctrls0.bytesPerActivate::total      8088135                       # Bytes accessed per row activation
system.mem_ctrls0.rdPerTurnAround::samples       183143                       # Reads before turning the bus around for writes
system.mem_ctrls0.rdPerTurnAround::mean     30.952114                       # Reads before turning the bus around for writes
system.mem_ctrls0.rdPerTurnAround::stdev    56.261400                       # Reads before turning the bus around for writes
system.mem_ctrls0.rdPerTurnAround::0-1023       183142    100.00%    100.00% # Reads before turning the bus around for writes
system.mem_ctrls0.rdPerTurnAround::22528-23551            1      0.00%    100.00% # Reads before turning the bus around for writes
system.mem_ctrls0.rdPerTurnAround::total       183143                       # Reads before turning the bus around for writes
system.mem_ctrls0.wrPerTurnAround::samples       183143                       # Writes before turning the bus around for reads
system.mem_ctrls0.wrPerTurnAround::mean     17.750736                       # Writes before turning the bus around for reads
system.mem_ctrls0.wrPerTurnAround::gmean    17.734575                       # Writes before turning the bus around for reads
system.mem_ctrls0.wrPerTurnAround::stdev     0.740079                       # Writes before turning the bus around for reads
system.mem_ctrls0.wrPerTurnAround::16           25204     13.76%     13.76% # Writes before turning the bus around for reads
system.mem_ctrls0.wrPerTurnAround::17            2605      1.42%     15.18% # Writes before turning the bus around for reads
system.mem_ctrls0.wrPerTurnAround::18          148390     81.02%     96.21% # Writes before turning the bus around for reads
system.mem_ctrls0.wrPerTurnAround::19            6556      3.58%     99.79% # Writes before turning the bus around for reads
system.mem_ctrls0.wrPerTurnAround::20             362      0.20%     99.99% # Writes before turning the bus around for reads
system.mem_ctrls0.wrPerTurnAround::21              23      0.01%    100.00% # Writes before turning the bus around for reads
system.mem_ctrls0.wrPerTurnAround::22               2      0.00%    100.00% # Writes before turning the bus around for reads
system.mem_ctrls0.wrPerTurnAround::23               1      0.00%    100.00% # Writes before turning the bus around for reads
system.mem_ctrls0.wrPerTurnAround::total       183143                       # Writes before turning the bus around for reads
system.mem_ctrls0.totQLat                152926465767                       # Total ticks spent queuing
system.mem_ctrls0.totMemAccLat           259214159517                       # Total ticks spent from burst creation until serviced by the DRAM
system.mem_ctrls0.totBusLat               28343385000                       # Total ticks spent in databus transfers
system.mem_ctrls0.avgQLat                    26977.45                       # Average queueing delay per DRAM burst
system.mem_ctrls0.avgBusLat                   5000.00                       # Average bus latency per DRAM burst
system.mem_ctrls0.avgMemAccLat               45727.45                       # Average memory access latency per DRAM burst
system.mem_ctrls0.avgRdBW                      109.14                       # Average DRAM read bandwidth in MiByte/s
system.mem_ctrls0.avgWrBW                       62.59                       # Average achieved write bandwidth in MiByte/s
system.mem_ctrls0.avgRdBWSys                   109.63                       # Average system read bandwidth in MiByte/s
system.mem_ctrls0.avgWrBWSys                    62.59                       # Average system write bandwidth in MiByte/s
system.mem_ctrls0.peakBW                     12800.00                       # Theoretical peak bandwidth in MiByte/s
system.mem_ctrls0.busUtil                        1.34                       # Data bus utilization in percentage
system.mem_ctrls0.busUtilRead                    0.85                       # Data bus utilization in percentage for reads
system.mem_ctrls0.busUtilWrite                   0.49                       # Data bus utilization in percentage for writes
system.mem_ctrls0.avgRdQLen                      1.01                       # Average read queue length when enqueuing
system.mem_ctrls0.avgWrQLen                     24.57                       # Average write queue length when enqueuing
system.mem_ctrls0.readRowHits                  799796                       # Number of row buffer hits during reads
system.mem_ctrls0.writeRowHits                  31667                       # Number of row buffer hits during writes
system.mem_ctrls0.readRowHitRate                14.11                       # Row buffer hit rate for reads
system.mem_ctrls0.writeRowHitRate                0.97                       # Row buffer hit rate for writes
system.mem_ctrls0.avgGap                    371616.54                       # Average gap between requests
system.mem_ctrls0.pageHitRate                    9.32                       # Row buffer hit rate, read and write combined
system.mem_ctrls0_0.actEnergy             28717365600                       # Energy for activate commands per rank (pJ)
system.mem_ctrls0_0.preEnergy             15263641800                       # Energy for precharge commands per rank (pJ)
system.mem_ctrls0_0.readEnergy            20232582300                       # Energy for read commands per rank (pJ)
system.mem_ctrls0_0.writeEnergy            8382860640                       # Energy for write commands per rank (pJ)
system.mem_ctrls0_0.refreshEnergy        263297639280.000061                       # Energy for refresh commands per rank (pJ)
system.mem_ctrls0_0.actBackEnergy        186139996290                       # Energy for active background per rank (pJ)
system.mem_ctrls0_0.preBackEnergy          5913964800                       # Energy for precharge background per rank (pJ)
system.mem_ctrls0_0.actPowerDownEnergy   1126567822890                       # Energy for active power-down per rank (pJ)
system.mem_ctrls0_0.prePowerDownEnergy   163651769760                       # Energy for precharge power-down per rank (pJ)
system.mem_ctrls0_0.selfRefreshEnergy      2075601270                       # Energy for self refresh per rank (pJ)
system.mem_ctrls0_0.totalEnergy          1820261717970                       # Total energy per rank (pJ)
system.mem_ctrls0_0.averagePower           547.587078                       # Core power per rank (mW)
system.mem_ctrls0_0.totalIdleTime        2900531091984                       # Total Idle time Per DRAM Rank
system.mem_ctrls0_0.memoryStateTime::IDLE   3060693072                       # Time in different power states
system.mem_ctrls0_0.memoryStateTime::REF 111392714000                       # Time in different power states
system.mem_ctrls0_0.memoryStateTime::SREF   3786546975                       # Time in different power states
system.mem_ctrls0_0.memoryStateTime::PRE_PDN 426184831386                       # Time in different power states
system.mem_ctrls0_0.memoryStateTime::ACT 309164974867                       # Time in different power states
system.mem_ctrls0_0.memoryStateTime::ACT_PDN 2470560469992                       # Time in different power states
system.mem_ctrls0_1.actEnergy             29031932580                       # Energy for activate commands per rank (pJ)
system.mem_ctrls0_1.preEnergy             15430830525                       # Energy for precharge commands per rank (pJ)
system.mem_ctrls0_1.readEnergy            20241771480                       # Energy for read commands per rank (pJ)
system.mem_ctrls0_1.writeEnergy            8586957420                       # Energy for write commands per rank (pJ)
system.mem_ctrls0_1.refreshEnergy        263382459600.000061                       # Energy for refresh commands per rank (pJ)
system.mem_ctrls0_1.actBackEnergy        185832695610                       # Energy for active background per rank (pJ)
system.mem_ctrls0_1.preBackEnergy          5942433600                       # Energy for precharge background per rank (pJ)
system.mem_ctrls0_1.actPowerDownEnergy   1125374785530                       # Energy for active power-down per rank (pJ)
system.mem_ctrls0_1.prePowerDownEnergy   164747823840                       # Energy for precharge power-down per rank (pJ)
system.mem_ctrls0_1.selfRefreshEnergy      2272793220                       # Energy for self refresh per rank (pJ)
system.mem_ctrls0_1.totalEnergy          1820867175465                       # Total energy per rank (pJ)
system.mem_ctrls0_1.averagePower           547.769218                       # Core power per rank (mW)
system.mem_ctrls0_1.totalIdleTime        2901106334500                       # Total Idle time Per DRAM Rank
system.mem_ctrls0_1.memoryStateTime::IDLE   3118306621                       # Time in different power states
system.mem_ctrls0_1.memoryStateTime::REF 111429716000                       # Time in different power states
system.mem_ctrls0_1.memoryStateTime::SREF   4138892335                       # Time in different power states
system.mem_ctrls0_1.memoryStateTime::PRE_PDN 429025610963                       # Time in different power states
system.mem_ctrls0_1.memoryStateTime::ACT 308495566350                       # Time in different power states
system.mem_ctrls0_1.memoryStateTime::ACT_PDN 2467942138023                       # Time in different power states
system.mem_ctrls1.pwrStateResidencyTicks::UNDEFINED 303694370984979                       # Cumulative time (in ticks) in various power states
system.mem_ctrls1.bytes_read::cpu.inst             64                       # Number of bytes read from this memory
system.mem_ctrls1.bytes_read::cpu.data            128                       # Number of bytes read from this memory
system.mem_ctrls1.bytes_read::switch_cpus.inst         3904                       # Number of bytes read from this memory
system.mem_ctrls1.bytes_read::switch_cpus.data    300343808                       # Number of bytes read from this memory
system.mem_ctrls1.bytes_read::switch_cpus_1.inst          832                       # Number of bytes read from this memory
system.mem_ctrls1.bytes_read::switch_cpus_1.data     65200320                       # Number of bytes read from this memory
system.mem_ctrls1.bytes_read::total         365549056                       # Number of bytes read from this memory
system.mem_ctrls1.bytes_inst_read::cpu.inst           64                       # Number of instructions bytes read from this memory
system.mem_ctrls1.bytes_inst_read::switch_cpus.inst         3904                       # Number of instructions bytes read from this memory
system.mem_ctrls1.bytes_inst_read::switch_cpus_1.inst          832                       # Number of instructions bytes read from this memory
system.mem_ctrls1.bytes_inst_read::total         4800                       # Number of instructions bytes read from this memory
system.mem_ctrls1.bytes_written::writebacks    208235840                       # Number of bytes written to this memory
system.mem_ctrls1.bytes_written::total      208235840                       # Number of bytes written to this memory
system.mem_ctrls1.num_reads::cpu.inst               1                       # Number of read requests responded to by this memory
system.mem_ctrls1.num_reads::cpu.data               2                       # Number of read requests responded to by this memory
system.mem_ctrls1.num_reads::switch_cpus.inst           61                       # Number of read requests responded to by this memory
system.mem_ctrls1.num_reads::switch_cpus.data      4692872                       # Number of read requests responded to by this memory
system.mem_ctrls1.num_reads::switch_cpus_1.inst           13                       # Number of read requests responded to by this memory
system.mem_ctrls1.num_reads::switch_cpus_1.data      1018755                       # Number of read requests responded to by this memory
system.mem_ctrls1.num_reads::total            5711704                       # Number of read requests responded to by this memory
system.mem_ctrls1.num_writes::writebacks      3253685                       # Number of write requests responded to by this memory
system.mem_ctrls1.num_writes::total           3253685                       # Number of write requests responded to by this memory
system.mem_ctrls1.bw_read::cpu.inst                19                       # Total read bandwidth from this memory (bytes/s)
system.mem_ctrls1.bw_read::cpu.data                39                       # Total read bandwidth from this memory (bytes/s)
system.mem_ctrls1.bw_read::switch_cpus.inst         1174                       # Total read bandwidth from this memory (bytes/s)
system.mem_ctrls1.bw_read::switch_cpus.data     90352056                       # Total read bandwidth from this memory (bytes/s)
system.mem_ctrls1.bw_read::switch_cpus_1.inst          250                       # Total read bandwidth from this memory (bytes/s)
system.mem_ctrls1.bw_read::switch_cpus_1.data     19614132                       # Total read bandwidth from this memory (bytes/s)
system.mem_ctrls1.bw_read::total            109967670                       # Total read bandwidth from this memory (bytes/s)
system.mem_ctrls1.bw_inst_read::cpu.inst           19                       # Instruction read bandwidth from this memory (bytes/s)
system.mem_ctrls1.bw_inst_read::switch_cpus.inst         1174                       # Instruction read bandwidth from this memory (bytes/s)
system.mem_ctrls1.bw_inst_read::switch_cpus_1.inst          250                       # Instruction read bandwidth from this memory (bytes/s)
system.mem_ctrls1.bw_inst_read::total            1444                       # Instruction read bandwidth from this memory (bytes/s)
system.mem_ctrls1.bw_write::writebacks       62643330                       # Write bandwidth from this memory (bytes/s)
system.mem_ctrls1.bw_write::total            62643330                       # Write bandwidth from this memory (bytes/s)
system.mem_ctrls1.bw_total::writebacks       62643330                       # Total bandwidth to/from this memory (bytes/s)
system.mem_ctrls1.bw_total::cpu.inst               19                       # Total bandwidth to/from this memory (bytes/s)
system.mem_ctrls1.bw_total::cpu.data               39                       # Total bandwidth to/from this memory (bytes/s)
system.mem_ctrls1.bw_total::switch_cpus.inst         1174                       # Total bandwidth to/from this memory (bytes/s)
system.mem_ctrls1.bw_total::switch_cpus.data     90352056                       # Total bandwidth to/from this memory (bytes/s)
system.mem_ctrls1.bw_total::switch_cpus_1.inst          250                       # Total bandwidth to/from this memory (bytes/s)
system.mem_ctrls1.bw_total::switch_cpus_1.data     19614132                       # Total bandwidth to/from this memory (bytes/s)
system.mem_ctrls1.bw_total::total           172611000                       # Total bandwidth to/from this memory (bytes/s)
system.mem_ctrls1.readReqs                    5711704                       # Number of read requests accepted
system.mem_ctrls1.writeReqs                   3253685                       # Number of write requests accepted
system.mem_ctrls1.readBursts                  5711704                       # Number of DRAM read bursts, including those serviced by the write queue
system.mem_ctrls1.writeBursts                 3253685                       # Number of DRAM write bursts, including those merged in the write queue
system.mem_ctrls1.bytesReadDRAM             363928576                       # Total number of bytes read from DRAM
system.mem_ctrls1.bytesReadWrQ                1620480                       # Total number of bytes read from write queue
system.mem_ctrls1.bytesWritten              208234048                       # Total number of bytes written to DRAM
system.mem_ctrls1.bytesReadSys              365549056                       # Total read bytes from the system interface side
system.mem_ctrls1.bytesWrittenSys           208235840                       # Total written bytes from the system interface side
system.mem_ctrls1.servicedByWrQ                 25320                       # Number of DRAM read bursts serviced by the write queue
system.mem_ctrls1.mergedWrBursts                    0                       # Number of DRAM write bursts merged with an existing one
system.mem_ctrls1.neitherReadNorWriteReqs            0                       # Number of requests that are neither read nor write
system.mem_ctrls1.perBankRdBursts::0           371367                       # Per bank write bursts
system.mem_ctrls1.perBankRdBursts::1           314668                       # Per bank write bursts
system.mem_ctrls1.perBankRdBursts::2           393402                       # Per bank write bursts
system.mem_ctrls1.perBankRdBursts::3           277687                       # Per bank write bursts
system.mem_ctrls1.perBankRdBursts::4           319234                       # Per bank write bursts
system.mem_ctrls1.perBankRdBursts::5           363723                       # Per bank write bursts
system.mem_ctrls1.perBankRdBursts::6           348101                       # Per bank write bursts
system.mem_ctrls1.perBankRdBursts::7           466921                       # Per bank write bursts
system.mem_ctrls1.perBankRdBursts::8           402339                       # Per bank write bursts
system.mem_ctrls1.perBankRdBursts::9           310075                       # Per bank write bursts
system.mem_ctrls1.perBankRdBursts::10          395642                       # Per bank write bursts
system.mem_ctrls1.perBankRdBursts::11          266227                       # Per bank write bursts
system.mem_ctrls1.perBankRdBursts::12          303480                       # Per bank write bursts
system.mem_ctrls1.perBankRdBursts::13          337897                       # Per bank write bursts
system.mem_ctrls1.perBankRdBursts::14          348135                       # Per bank write bursts
system.mem_ctrls1.perBankRdBursts::15          467486                       # Per bank write bursts
system.mem_ctrls1.perBankWrBursts::0           212797                       # Per bank write bursts
system.mem_ctrls1.perBankWrBursts::1           174352                       # Per bank write bursts
system.mem_ctrls1.perBankWrBursts::2           222124                       # Per bank write bursts
system.mem_ctrls1.perBankWrBursts::3           163487                       # Per bank write bursts
system.mem_ctrls1.perBankWrBursts::4           178299                       # Per bank write bursts
system.mem_ctrls1.perBankWrBursts::5           208910                       # Per bank write bursts
system.mem_ctrls1.perBankWrBursts::6           191592                       # Per bank write bursts
system.mem_ctrls1.perBankWrBursts::7           257774                       # Per bank write bursts
system.mem_ctrls1.perBankWrBursts::8           230118                       # Per bank write bursts
system.mem_ctrls1.perBankWrBursts::9           166998                       # Per bank write bursts
system.mem_ctrls1.perBankWrBursts::10          231693                       # Per bank write bursts
system.mem_ctrls1.perBankWrBursts::11          155532                       # Per bank write bursts
system.mem_ctrls1.perBankWrBursts::12          183573                       # Per bank write bursts
system.mem_ctrls1.perBankWrBursts::13          199710                       # Per bank write bursts
system.mem_ctrls1.perBankWrBursts::14          210014                       # Per bank write bursts
system.mem_ctrls1.perBankWrBursts::15          266684                       # Per bank write bursts
system.mem_ctrls1.numRdRetry                        0                       # Number of times read queue was full causing retry
system.mem_ctrls1.numWrRetry                        0                       # Number of times write queue was full causing retry
system.mem_ctrls1.totGap                 3324150118071                       # Total gap between requests
system.mem_ctrls1.readPktSize::0                    0                       # Read request sizes (log2)
system.mem_ctrls1.readPktSize::1                    0                       # Read request sizes (log2)
system.mem_ctrls1.readPktSize::2                    0                       # Read request sizes (log2)
system.mem_ctrls1.readPktSize::3                    0                       # Read request sizes (log2)
system.mem_ctrls1.readPktSize::4                    0                       # Read request sizes (log2)
system.mem_ctrls1.readPktSize::5                    0                       # Read request sizes (log2)
system.mem_ctrls1.readPktSize::6              5711704                       # Read request sizes (log2)
system.mem_ctrls1.writePktSize::0                   0                       # Write request sizes (log2)
system.mem_ctrls1.writePktSize::1                   0                       # Write request sizes (log2)
system.mem_ctrls1.writePktSize::2                   0                       # Write request sizes (log2)
system.mem_ctrls1.writePktSize::3                   0                       # Write request sizes (log2)
system.mem_ctrls1.writePktSize::4                   0                       # Write request sizes (log2)
system.mem_ctrls1.writePktSize::5                   0                       # Write request sizes (log2)
system.mem_ctrls1.writePktSize::6             3253685                       # Write request sizes (log2)
system.mem_ctrls1.rdQLenPdf::0                5588432                       # What read queue length does an incoming req see
system.mem_ctrls1.rdQLenPdf::1                  90934                       # What read queue length does an incoming req see
system.mem_ctrls1.rdQLenPdf::2                   6690                       # What read queue length does an incoming req see
system.mem_ctrls1.rdQLenPdf::3                    328                       # What read queue length does an incoming req see
system.mem_ctrls1.rdQLenPdf::4                      0                       # What read queue length does an incoming req see
system.mem_ctrls1.rdQLenPdf::5                      0                       # What read queue length does an incoming req see
system.mem_ctrls1.rdQLenPdf::6                      0                       # What read queue length does an incoming req see
system.mem_ctrls1.rdQLenPdf::7                      0                       # What read queue length does an incoming req see
system.mem_ctrls1.rdQLenPdf::8                      0                       # What read queue length does an incoming req see
system.mem_ctrls1.rdQLenPdf::9                      0                       # What read queue length does an incoming req see
system.mem_ctrls1.rdQLenPdf::10                     0                       # What read queue length does an incoming req see
system.mem_ctrls1.rdQLenPdf::11                     0                       # What read queue length does an incoming req see
system.mem_ctrls1.rdQLenPdf::12                     0                       # What read queue length does an incoming req see
system.mem_ctrls1.rdQLenPdf::13                     0                       # What read queue length does an incoming req see
system.mem_ctrls1.rdQLenPdf::14                     0                       # What read queue length does an incoming req see
system.mem_ctrls1.rdQLenPdf::15                     0                       # What read queue length does an incoming req see
system.mem_ctrls1.rdQLenPdf::16                     0                       # What read queue length does an incoming req see
system.mem_ctrls1.rdQLenPdf::17                     0                       # What read queue length does an incoming req see
system.mem_ctrls1.rdQLenPdf::18                     0                       # What read queue length does an incoming req see
system.mem_ctrls1.rdQLenPdf::19                     0                       # What read queue length does an incoming req see
system.mem_ctrls1.rdQLenPdf::20                     0                       # What read queue length does an incoming req see
system.mem_ctrls1.rdQLenPdf::21                     0                       # What read queue length does an incoming req see
system.mem_ctrls1.rdQLenPdf::22                     0                       # What read queue length does an incoming req see
system.mem_ctrls1.rdQLenPdf::23                     0                       # What read queue length does an incoming req see
system.mem_ctrls1.rdQLenPdf::24                     0                       # What read queue length does an incoming req see
system.mem_ctrls1.rdQLenPdf::25                     0                       # What read queue length does an incoming req see
system.mem_ctrls1.rdQLenPdf::26                     0                       # What read queue length does an incoming req see
system.mem_ctrls1.rdQLenPdf::27                     0                       # What read queue length does an incoming req see
system.mem_ctrls1.rdQLenPdf::28                     0                       # What read queue length does an incoming req see
system.mem_ctrls1.rdQLenPdf::29                     0                       # What read queue length does an incoming req see
system.mem_ctrls1.rdQLenPdf::30                     0                       # What read queue length does an incoming req see
system.mem_ctrls1.rdQLenPdf::31                     0                       # What read queue length does an incoming req see
system.mem_ctrls1.wrQLenPdf::0                      2                       # What write queue length does an incoming req see
system.mem_ctrls1.wrQLenPdf::1                      2                       # What write queue length does an incoming req see
system.mem_ctrls1.wrQLenPdf::2                      2                       # What write queue length does an incoming req see
system.mem_ctrls1.wrQLenPdf::3                      2                       # What write queue length does an incoming req see
system.mem_ctrls1.wrQLenPdf::4                      2                       # What write queue length does an incoming req see
system.mem_ctrls1.wrQLenPdf::5                      2                       # What write queue length does an incoming req see
system.mem_ctrls1.wrQLenPdf::6                      2                       # What write queue length does an incoming req see
system.mem_ctrls1.wrQLenPdf::7                      2                       # What write queue length does an incoming req see
system.mem_ctrls1.wrQLenPdf::8                      2                       # What write queue length does an incoming req see
system.mem_ctrls1.wrQLenPdf::9                      2                       # What write queue length does an incoming req see
system.mem_ctrls1.wrQLenPdf::10                     2                       # What write queue length does an incoming req see
system.mem_ctrls1.wrQLenPdf::11                     2                       # What write queue length does an incoming req see
system.mem_ctrls1.wrQLenPdf::12                     2                       # What write queue length does an incoming req see
system.mem_ctrls1.wrQLenPdf::13                     2                       # What write queue length does an incoming req see
system.mem_ctrls1.wrQLenPdf::14                     2                       # What write queue length does an incoming req see
system.mem_ctrls1.wrQLenPdf::15                155595                       # What write queue length does an incoming req see
system.mem_ctrls1.wrQLenPdf::16                158749                       # What write queue length does an incoming req see
system.mem_ctrls1.wrQLenPdf::17                182603                       # What write queue length does an incoming req see
system.mem_ctrls1.wrQLenPdf::18                183759                       # What write queue length does an incoming req see
system.mem_ctrls1.wrQLenPdf::19                183903                       # What write queue length does an incoming req see
system.mem_ctrls1.wrQLenPdf::20                183832                       # What write queue length does an incoming req see
system.mem_ctrls1.wrQLenPdf::21                183764                       # What write queue length does an incoming req see
system.mem_ctrls1.wrQLenPdf::22                183773                       # What write queue length does an incoming req see
system.mem_ctrls1.wrQLenPdf::23                183839                       # What write queue length does an incoming req see
system.mem_ctrls1.wrQLenPdf::24                183838                       # What write queue length does an incoming req see
system.mem_ctrls1.wrQLenPdf::25                183904                       # What write queue length does an incoming req see
system.mem_ctrls1.wrQLenPdf::26                184512                       # What write queue length does an incoming req see
system.mem_ctrls1.wrQLenPdf::27                183710                       # What write queue length does an incoming req see
system.mem_ctrls1.wrQLenPdf::28                183588                       # What write queue length does an incoming req see
system.mem_ctrls1.wrQLenPdf::29                183926                       # What write queue length does an incoming req see
system.mem_ctrls1.wrQLenPdf::30                183792                       # What write queue length does an incoming req see
system.mem_ctrls1.wrQLenPdf::31                183272                       # What write queue length does an incoming req see
system.mem_ctrls1.wrQLenPdf::32                183261                       # What write queue length does an incoming req see
system.mem_ctrls1.wrQLenPdf::33                    31                       # What write queue length does an incoming req see
system.mem_ctrls1.wrQLenPdf::34                     3                       # What write queue length does an incoming req see
system.mem_ctrls1.wrQLenPdf::35                     1                       # What write queue length does an incoming req see
system.mem_ctrls1.wrQLenPdf::36                     0                       # What write queue length does an incoming req see
system.mem_ctrls1.wrQLenPdf::37                     0                       # What write queue length does an incoming req see
system.mem_ctrls1.wrQLenPdf::38                     0                       # What write queue length does an incoming req see
system.mem_ctrls1.wrQLenPdf::39                     0                       # What write queue length does an incoming req see
system.mem_ctrls1.wrQLenPdf::40                     0                       # What write queue length does an incoming req see
system.mem_ctrls1.wrQLenPdf::41                     0                       # What write queue length does an incoming req see
system.mem_ctrls1.wrQLenPdf::42                     0                       # What write queue length does an incoming req see
system.mem_ctrls1.wrQLenPdf::43                     0                       # What write queue length does an incoming req see
system.mem_ctrls1.wrQLenPdf::44                     0                       # What write queue length does an incoming req see
system.mem_ctrls1.wrQLenPdf::45                     0                       # What write queue length does an incoming req see
system.mem_ctrls1.wrQLenPdf::46                     0                       # What write queue length does an incoming req see
system.mem_ctrls1.wrQLenPdf::47                     0                       # What write queue length does an incoming req see
system.mem_ctrls1.wrQLenPdf::48                     0                       # What write queue length does an incoming req see
system.mem_ctrls1.wrQLenPdf::49                     0                       # What write queue length does an incoming req see
system.mem_ctrls1.wrQLenPdf::50                     0                       # What write queue length does an incoming req see
system.mem_ctrls1.wrQLenPdf::51                     0                       # What write queue length does an incoming req see
system.mem_ctrls1.wrQLenPdf::52                     0                       # What write queue length does an incoming req see
system.mem_ctrls1.wrQLenPdf::53                     0                       # What write queue length does an incoming req see
system.mem_ctrls1.wrQLenPdf::54                     0                       # What write queue length does an incoming req see
system.mem_ctrls1.wrQLenPdf::55                     0                       # What write queue length does an incoming req see
system.mem_ctrls1.wrQLenPdf::56                     0                       # What write queue length does an incoming req see
system.mem_ctrls1.wrQLenPdf::57                     0                       # What write queue length does an incoming req see
system.mem_ctrls1.wrQLenPdf::58                     0                       # What write queue length does an incoming req see
system.mem_ctrls1.wrQLenPdf::59                     0                       # What write queue length does an incoming req see
system.mem_ctrls1.wrQLenPdf::60                     0                       # What write queue length does an incoming req see
system.mem_ctrls1.wrQLenPdf::61                     0                       # What write queue length does an incoming req see
system.mem_ctrls1.wrQLenPdf::62                     0                       # What write queue length does an incoming req see
system.mem_ctrls1.wrQLenPdf::63                     0                       # What write queue length does an incoming req see
system.mem_ctrls1.bytesPerActivate::samples      8109918                       # Bytes accessed per row activation
system.mem_ctrls1.bytesPerActivate::mean    70.550928                       # Bytes accessed per row activation
system.mem_ctrls1.bytesPerActivate::gmean    68.286467                       # Bytes accessed per row activation
system.mem_ctrls1.bytesPerActivate::stdev    24.397211                       # Bytes accessed per row activation
system.mem_ctrls1.bytesPerActivate::64-127      7431413     91.63%     91.63% # Bytes accessed per row activation
system.mem_ctrls1.bytesPerActivate::128-191       567052      6.99%     98.63% # Bytes accessed per row activation
system.mem_ctrls1.bytesPerActivate::192-255        85879      1.06%     99.68% # Bytes accessed per row activation
system.mem_ctrls1.bytesPerActivate::256-319        17107      0.21%     99.90% # Bytes accessed per row activation
system.mem_ctrls1.bytesPerActivate::320-383         4905      0.06%     99.96% # Bytes accessed per row activation
system.mem_ctrls1.bytesPerActivate::384-447         2037      0.03%     99.98% # Bytes accessed per row activation
system.mem_ctrls1.bytesPerActivate::448-511          893      0.01%     99.99% # Bytes accessed per row activation
system.mem_ctrls1.bytesPerActivate::512-575          376      0.00%    100.00% # Bytes accessed per row activation
system.mem_ctrls1.bytesPerActivate::576-639          168      0.00%    100.00% # Bytes accessed per row activation
system.mem_ctrls1.bytesPerActivate::640-703           52      0.00%    100.00% # Bytes accessed per row activation
system.mem_ctrls1.bytesPerActivate::704-767           24      0.00%    100.00% # Bytes accessed per row activation
system.mem_ctrls1.bytesPerActivate::768-831            7      0.00%    100.00% # Bytes accessed per row activation
system.mem_ctrls1.bytesPerActivate::832-895            3      0.00%    100.00% # Bytes accessed per row activation
system.mem_ctrls1.bytesPerActivate::896-959            2      0.00%    100.00% # Bytes accessed per row activation
system.mem_ctrls1.bytesPerActivate::total      8109918                       # Bytes accessed per row activation
system.mem_ctrls1.rdPerTurnAround::samples       183258                       # Reads before turning the bus around for writes
system.mem_ctrls1.rdPerTurnAround::mean     31.029287                       # Reads before turning the bus around for writes
system.mem_ctrls1.rdPerTurnAround::stdev    58.043021                       # Reads before turning the bus around for writes
system.mem_ctrls1.rdPerTurnAround::0-1023       183257    100.00%    100.00% # Reads before turning the bus around for writes
system.mem_ctrls1.rdPerTurnAround::23552-24575            1      0.00%    100.00% # Reads before turning the bus around for writes
system.mem_ctrls1.rdPerTurnAround::total       183258                       # Reads before turning the bus around for writes
system.mem_ctrls1.wrPerTurnAround::samples       183258                       # Writes before turning the bus around for reads
system.mem_ctrls1.wrPerTurnAround::mean     17.754515                       # Writes before turning the bus around for reads
system.mem_ctrls1.wrPerTurnAround::gmean    17.738477                       # Writes before turning the bus around for reads
system.mem_ctrls1.wrPerTurnAround::stdev     0.737355                       # Writes before turning the bus around for reads
system.mem_ctrls1.wrPerTurnAround::16           24921     13.60%     13.60% # Writes before turning the bus around for reads
system.mem_ctrls1.wrPerTurnAround::17            2569      1.40%     15.00% # Writes before turning the bus around for reads
system.mem_ctrls1.wrPerTurnAround::18          148810     81.20%     96.20% # Writes before turning the bus around for reads
system.mem_ctrls1.wrPerTurnAround::19            6522      3.56%     99.76% # Writes before turning the bus around for reads
system.mem_ctrls1.wrPerTurnAround::20             410      0.22%     99.99% # Writes before turning the bus around for reads
system.mem_ctrls1.wrPerTurnAround::21              23      0.01%    100.00% # Writes before turning the bus around for reads
system.mem_ctrls1.wrPerTurnAround::22               2      0.00%    100.00% # Writes before turning the bus around for reads
system.mem_ctrls1.wrPerTurnAround::23               1      0.00%    100.00% # Writes before turning the bus around for reads
system.mem_ctrls1.wrPerTurnAround::total       183258                       # Writes before turning the bus around for reads
system.mem_ctrls1.totQLat                153474782302                       # Total ticks spent queuing
system.mem_ctrls1.totMemAccLat           260094482302                       # Total ticks spent from burst creation until serviced by the DRAM
system.mem_ctrls1.totBusLat               28431920000                       # Total ticks spent in databus transfers
system.mem_ctrls1.avgQLat                    26989.87                       # Average queueing delay per DRAM burst
system.mem_ctrls1.avgBusLat                   5000.00                       # Average bus latency per DRAM burst
system.mem_ctrls1.avgMemAccLat               45739.87                       # Average memory access latency per DRAM burst
system.mem_ctrls1.avgRdBW                      109.48                       # Average DRAM read bandwidth in MiByte/s
system.mem_ctrls1.avgWrBW                       62.64                       # Average achieved write bandwidth in MiByte/s
system.mem_ctrls1.avgRdBWSys                   109.97                       # Average system read bandwidth in MiByte/s
system.mem_ctrls1.avgWrBWSys                    62.64                       # Average system write bandwidth in MiByte/s
system.mem_ctrls1.peakBW                     12800.00                       # Theoretical peak bandwidth in MiByte/s
system.mem_ctrls1.busUtil                        1.34                       # Data bus utilization in percentage
system.mem_ctrls1.busUtilRead                    0.86                       # Data bus utilization in percentage for reads
system.mem_ctrls1.busUtilWrite                   0.49                       # Data bus utilization in percentage for writes
system.mem_ctrls1.avgRdQLen                      1.01                       # Average read queue length when enqueuing
system.mem_ctrls1.avgWrQLen                     24.56                       # Average write queue length when enqueuing
system.mem_ctrls1.readRowHits                  799012                       # Number of row buffer hits during reads
system.mem_ctrls1.writeRowHits                  31105                       # Number of row buffer hits during writes
system.mem_ctrls1.readRowHitRate                14.05                       # Row buffer hit rate for reads
system.mem_ctrls1.writeRowHitRate                0.96                       # Row buffer hit rate for writes
system.mem_ctrls1.avgGap                    370775.89                       # Average gap between requests
system.mem_ctrls1.pageHitRate                    9.29                       # Row buffer hit rate, read and write combined
system.mem_ctrls1_0.actEnergy             28889917980                       # Energy for activate commands per rank (pJ)
system.mem_ctrls1_0.preEnergy             15355347975                       # Energy for precharge commands per rank (pJ)
system.mem_ctrls1_0.readEnergy            20385435420                       # Energy for read commands per rank (pJ)
system.mem_ctrls1_0.writeEnergy            8400728700                       # Energy for write commands per rank (pJ)
system.mem_ctrls1_0.refreshEnergy        263327756640.000061                       # Energy for refresh commands per rank (pJ)
system.mem_ctrls1_0.actBackEnergy        186205502970                       # Energy for active background per rank (pJ)
system.mem_ctrls1_0.preBackEnergy          5921034720                       # Energy for precharge background per rank (pJ)
system.mem_ctrls1_0.actPowerDownEnergy   1128159966840                       # Energy for active power-down per rank (pJ)
system.mem_ctrls1_0.prePowerDownEnergy   162237824640                       # Energy for precharge power-down per rank (pJ)
system.mem_ctrls1_0.selfRefreshEnergy      2114456595                       # Energy for self refresh per rank (pJ)
system.mem_ctrls1_0.totalEnergy          1821018492930                       # Total energy per rank (pJ)
system.mem_ctrls1_0.averagePower           547.814738                       # Core power per rank (mW)
system.mem_ctrls1_0.totalIdleTime        2900344867263                       # Total Idle time Per DRAM Rank
system.mem_ctrls1_0.memoryStateTime::IDLE   3080306110                       # Time in different power states
system.mem_ctrls1_0.memoryStateTime::REF 111405904000                       # Time in different power states
system.mem_ctrls1_0.memoryStateTime::SREF   3810440971                       # Time in different power states
system.mem_ctrls1_0.memoryStateTime::PRE_PDN 422486726131                       # Time in different power states
system.mem_ctrls1_0.memoryStateTime::ACT 309318177434                       # Time in different power states
system.mem_ctrls1_0.memoryStateTime::ACT_PDN 2474048675646                       # Time in different power states
system.mem_ctrls1_1.actEnergy             29014939380                       # Energy for activate commands per rank (pJ)
system.mem_ctrls1_1.preEnergy             15421790835                       # Energy for precharge commands per rank (pJ)
system.mem_ctrls1_1.readEnergy            20215346340                       # Energy for read commands per rank (pJ)
system.mem_ctrls1_1.writeEnergy            8583360840                       # Energy for write commands per rank (pJ)
system.mem_ctrls1_1.refreshEnergy        263392293840.000061                       # Energy for refresh commands per rank (pJ)
system.mem_ctrls1_1.actBackEnergy        185978741010                       # Energy for active background per rank (pJ)
system.mem_ctrls1_1.preBackEnergy          5943108000                       # Energy for precharge background per rank (pJ)
system.mem_ctrls1_1.actPowerDownEnergy   1124410246350                       # Energy for active power-down per rank (pJ)
system.mem_ctrls1_1.prePowerDownEnergy   165349806720                       # Energy for precharge power-down per rank (pJ)
system.mem_ctrls1_1.selfRefreshEnergy      2353424985                       # Energy for self refresh per rank (pJ)
system.mem_ctrls1_1.totalEnergy          1820683969260                       # Total energy per rank (pJ)
system.mem_ctrls1_1.averagePower           547.714103                       # Core power per rank (mW)
system.mem_ctrls1_1.totalIdleTime        2900791258358                       # Total Idle time Per DRAM Rank
system.mem_ctrls1_1.memoryStateTime::IDLE   3126163781                       # Time in different power states
system.mem_ctrls1_1.memoryStateTime::REF 111434146000                       # Time in different power states
system.mem_ctrls1_1.memoryStateTime::SREF   4368395344                       # Time in different power states
system.mem_ctrls1_1.memoryStateTime::PRE_PDN 430603838791                       # Time in different power states
system.mem_ctrls1_1.memoryStateTime::ACT 308798527590                       # Time in different power states
system.mem_ctrls1_1.memoryStateTime::ACT_PDN 2465819158786                       # Time in different power states
system.pwrStateResidencyTicks::UNDEFINED 303694370984979                       # Cumulative time (in ticks) in various power states
system.cpu.branchPred.lookups                       2                       # Number of BP lookups
system.cpu.branchPred.condPredicted                 1                       # Number of conditional branches predicted
system.cpu.branchPred.condIncorrect                 1                       # Number of conditional branches incorrect
system.cpu.branchPred.BTBLookups                    0                       # Number of BTB lookups
system.cpu.branchPred.BTBHits                       0                       # Number of BTB hits
system.cpu.branchPred.BTBCorrect                    0                       # Number of correct BTB predictions (this stat may not work properly.
system.cpu.branchPred.BTBHitPct                   nan                       # BTB Hit Percentage
system.cpu.branchPred.usedRAS                       1                       # Number of times the RAS was used to get a target.
system.cpu.branchPred.RASInCorrect                  1                       # Number of incorrect RAS predictions.
system.cpu.branchPred.indirectLookups               0                       # Number of indirect predictor lookups.
system.cpu.branchPred.indirectHits                  0                       # Number of indirect target hits.
system.cpu.branchPred.indirectMisses                0                       # Number of indirect misses.
system.cpu.branchPredindirectMispredicted            0                       # Number of mispredicted indirect branches.
system.cpu_voltage_domain.voltage                   1                       # Voltage in Volts
system.cpu_clk_domain.clock                       333                       # Clock period in ticks
system.cpu.dtb.fetch_hits                           0                       # ITB hits
system.cpu.dtb.fetch_misses                         0                       # ITB misses
system.cpu.dtb.fetch_acv                            0                       # ITB acv
system.cpu.dtb.fetch_accesses                       0                       # ITB accesses
system.cpu.dtb.read_hits                            3                       # DTB read hits
system.cpu.dtb.read_misses                          0                       # DTB read misses
system.cpu.dtb.read_acv                             0                       # DTB read access violations
system.cpu.dtb.read_accesses                        3                       # DTB read accesses
system.cpu.dtb.write_hits                           0                       # DTB write hits
system.cpu.dtb.write_misses                         1                       # DTB write misses
system.cpu.dtb.write_acv                            0                       # DTB write access violations
system.cpu.dtb.write_accesses                       1                       # DTB write accesses
system.cpu.dtb.data_hits                            3                       # DTB hits
system.cpu.dtb.data_misses                          1                       # DTB misses
system.cpu.dtb.data_acv                             0                       # DTB access violations
system.cpu.dtb.data_accesses                        4                       # DTB accesses
system.cpu.itb.fetch_hits                           3                       # ITB hits
system.cpu.itb.fetch_misses                         1                       # ITB misses
system.cpu.itb.fetch_acv                            0                       # ITB acv
system.cpu.itb.fetch_accesses                       4                       # ITB accesses
system.cpu.itb.read_hits                            0                       # DTB read hits
system.cpu.itb.read_misses                          0                       # DTB read misses
system.cpu.itb.read_acv                             0                       # DTB read access violations
system.cpu.itb.read_accesses                        0                       # DTB read accesses
system.cpu.itb.write_hits                           0                       # DTB write hits
system.cpu.itb.write_misses                         0                       # DTB write misses
system.cpu.itb.write_acv                            0                       # DTB write access violations
system.cpu.itb.write_accesses                       0                       # DTB write accesses
system.cpu.itb.data_hits                            0                       # DTB hits
system.cpu.itb.data_misses                          0                       # DTB misses
system.cpu.itb.data_acv                             0                       # DTB access violations
system.cpu.itb.data_accesses                        0                       # DTB accesses
system.cpu.workload.num_syscalls                    0                       # Number of system calls
system.cpu.pwrStateResidencyTicks::ON    3324150230292                       # Cumulative time (in ticks) in various power states
system.cpu.numCycles                              708                       # number of cpu cycles simulated
system.cpu.numWorkItemsStarted                      0                       # number of work items this cpu started
system.cpu.numWorkItemsCompleted                    0                       # number of work items this cpu completed
system.cpu.fetch.icacheStallCycles                 26                       # Number of cycles fetch is stalled on an Icache miss
system.cpu.fetch.Insts                             10                       # Number of instructions fetch has processed
system.cpu.fetch.Branches                           2                       # Number of branches that fetch encountered
system.cpu.fetch.predictedBranches                  1                       # Number of branches that fetch has predicted taken
system.cpu.fetch.Cycles                             2                       # Number of cycles fetch has run and was not squashing or blocked
system.cpu.fetch.SquashCycles                       5                       # Number of cycles fetch has spent squashing
system.cpu.fetch.PendingDrainCycles                 3                       # Number of cycles fetch has spent waiting on pipes to drain
system.cpu.fetch.PendingTrapStallCycles             6                       # Number of stall cycles due to pending traps
system.cpu.fetch.CacheLines                         3                       # Number of cache lines fetched
[...]
system.switch_cpus_1.iq.int_inst_queue_writes   1546159287                       # Number of integer instruction queue writes
system.switch_cpus_1.iq.int_inst_queue_wakeup_accesses    671922805                       # Number of integer instruction queue wakeup accesses
system.switch_cpus_1.iq.fp_inst_queue_reads       279040                       # Number of floating instruction queue reads
system.switch_cpus_1.iq.fp_inst_queue_writes       636838                       # Number of floating instruction queue writes
system.switch_cpus_1.iq.fp_inst_queue_wakeup_accesses       135075                       # Number of floating instruction queue wakeup accesses
system.switch_cpus_1.iq.int_alu_accesses    759450036                       # Number of integer alu accesses
system.switch_cpus_1.iq.fp_alu_accesses        139519                       # Number of floating point alu accesses
system.switch_cpus_1.iew.lsq.thread0.forwLoads     15917862                       # Number of loads that had data forwarded from stores
system.switch_cpus_1.iew.lsq.thread0.invAddrLoads            0                       # Number of loads ignored due to an invalid address
system.switch_cpus_1.iew.lsq.thread0.squashedLoads    211173830                       # Number of loads squashed
system.switch_cpus_1.iew.lsq.thread0.ignoredResponses        24561                       # Number of memory responses ignored because the instruction is squashed
system.switch_cpus_1.iew.lsq.thread0.memOrderViolation         1578                       # Number of memory ordering violations
system.switch_cpus_1.iew.lsq.thread0.squashedStores     45766758                       # Number of stores squashed
system.switch_cpus_1.iew.lsq.thread0.invAddrSwpfs            0                       # Number of software prefetches ignored due to an invalid address
system.switch_cpus_1.iew.lsq.thread0.blockedLoads            0                       # Number of blocked loads due to partial load-store forwarding
system.switch_cpus_1.iew.lsq.thread0.rescheduledLoads            0                       # Number of loads that were rescheduled
system.switch_cpus_1.iew.lsq.thread0.cacheBlocked     12968642                       # Number of times an access to memory failed due to the cache being blocked
system.switch_cpus_1.iew.iewIdleCycles              0                       # Number of cycles IEW is idle
system.switch_cpus_1.iew.iewSquashCycles     10028444                       # Number of cycles IEW is squashing
system.switch_cpus_1.iew.iewBlockCycles      90863939                       # Number of cycles IEW is blocking
system.switch_cpus_1.iew.iewUnblockCycles    148636765                       # Number of cycles IEW is unblocking
system.switch_cpus_1.iew.iewDispatchedInsts    873429225                       # Number of instructions dispatched to IQ
system.switch_cpus_1.iew.iewDispSquashedInsts       101374                       # Number of squashed instructions skipped by dispatch
system.switch_cpus_1.iew.iewDispLoadInsts    276855618                       # Number of dispatched load instructions
system.switch_cpus_1.iew.iewDispStoreInsts     61381539                       # Number of dispatched store instructions
system.switch_cpus_1.iew.iewDispNonSpecInsts         4244                       # Number of dispatched non-speculative instructions
system.switch_cpus_1.iew.iewIQFullEvents        99580                       # Number of times the IQ has become full, causing a stall
system.switch_cpus_1.iew.iewLSQFullEvents    149475562                       # Number of times the LSQ has become full, causing a stall
system.switch_cpus_1.iew.memOrderViolationEvents         1578                       # Number of memory order violations
system.switch_cpus_1.iew.predictedTakenIncorrect      3215846                       # Number of branches that were predicted taken incorrectly
system.switch_cpus_1.iew.predictedNotTakenIncorrect      2783741                       # Number of branches that were predicted not taken incorrectly
system.switch_cpus_1.iew.branchMispredicts      5999587                       # Number of branch mispredicts detected at execute
system.switch_cpus_1.iew.iewExecutedInsts    735179472                       # Number of executed instructions
system.switch_cpus_1.iew.iewExecLoadInsts    255677212                       # Number of load instructions executed
system.switch_cpus_1.iew.iewExecSquashedInsts     10698146                       # Number of squashed instructions skipped in execute
system.switch_cpus_1.iew.exec_swp                   0                       # number of swp insts executed
system.switch_cpus_1.iew.exec_nop               31913                       # number of nop insts executed
system.switch_cpus_1.iew.exec_refs          310244597                       # number of memory reference insts executed
system.switch_cpus_1.iew.exec_branches      102138904                       # Number of branches executed
system.switch_cpus_1.iew.exec_stores         54567385                       # Number of stores executed
system.switch_cpus_1.iew.exec_rate           0.671569                       # Inst execution rate
system.switch_cpus_1.iew.wb_sent            712199416                       # cumulative count of insts sent to commit
system.switch_cpus_1.iew.wb_count           672057880                       # cumulative count of insts written-back
system.switch_cpus_1.iew.wb_producers       415945916                       # num instructions producing a value
system.switch_cpus_1.iew.wb_consumers       517979841                       # num instructions consuming a value
system.switch_cpus_1.iew.wb_rate             0.613909                       # insts written-back per cycle
system.switch_cpus_1.iew.wb_fanout           0.803016                       # average fanout of values written-back
system.switch_cpus_1.commit.commitSquashedInsts    587621159                       # The number of squashed insts skipped by commit
system.switch_cpus_1.commit.commitNonSpecStalls          600                       # The number of times commit has been forced to stall to communicate backwards
system.switch_cpus_1.commit.branchMispredicts      5329664                       # The number of times a branch was mispredicted
system.switch_cpus_1.commit.committed_per_cycle::samples   1009630552                       # Number of insts commited each cycle
system.switch_cpus_1.commit.committed_per_cycle::mean     0.198104                       # Number of insts commited each cycle
system.switch_cpus_1.commit.committed_per_cycle::stdev     1.029978                       # Number of insts commited each cycle
system.switch_cpus_1.commit.committed_per_cycle::underflows            0      0.00%      0.00% # Number of insts commited each cycle
system.switch_cpus_1.commit.committed_per_cycle::0    952878486     94.38%     94.38% # Number of insts commited each cycle
system.switch_cpus_1.commit.committed_per_cycle::1     20439555      2.02%     96.40% # Number of insts commited each cycle
system.switch_cpus_1.commit.committed_per_cycle::2      8644180      0.86%     97.26% # Number of insts commited each cycle
system.switch_cpus_1.commit.committed_per_cycle::3      2603364      0.26%     97.52% # Number of insts commited each cycle
system.switch_cpus_1.commit.committed_per_cycle::4      8023481      0.79%     98.31% # Number of insts commited each cycle
system.switch_cpus_1.commit.committed_per_cycle::5      3353978      0.33%     98.64% # Number of insts commited each cycle
system.switch_cpus_1.commit.committed_per_cycle::6      1189402      0.12%     98.76% # Number of insts commited each cycle
system.switch_cpus_1.commit.committed_per_cycle::7      1511610      0.15%     98.91% # Number of insts commited each cycle
system.switch_cpus_1.commit.committed_per_cycle::8     10986496      1.09%    100.00% # Number of insts commited each cycle
system.switch_cpus_1.commit.committed_per_cycle::overflows            0      0.00%    100.00% # Number of insts commited each cycle
system.switch_cpus_1.commit.committed_per_cycle::min_value            0                       # Number of insts commited each cycle
system.switch_cpus_1.commit.committed_per_cycle::max_value            8                       # Number of insts commited each cycle
system.switch_cpus_1.commit.committed_per_cycle::total   1009630552                       # Number of insts commited each cycle
system.switch_cpus_1.commit.committedInsts    200011471                       # Number of instructions committed
system.switch_cpus_1.commit.committedOps    200011471                       # Number of ops (including micro ops) committed
system.switch_cpus_1.commit.swp_count               0                       # Number of s/w prefetches committed
system.switch_cpus_1.commit.refs             81296536                       # Number of memory references committed
system.switch_cpus_1.commit.loads            65681764                       # Number of loads committed
system.switch_cpus_1.commit.membars               300                       # Number of memory barriers committed
system.switch_cpus_1.commit.branches         31827976                       # Number of branches committed
system.switch_cpus_1.commit.fp_insts            82770                       # Number of committed floating point instructions.
system.switch_cpus_1.commit.int_insts       198559748                       # Number of committed integer instructions.
system.switch_cpus_1.commit.function_calls      6119272                       # Number of function calls committed.
system.switch_cpus_1.commit.op_class_0::No_OpClass        11470      0.01%      0.01% # Class of committed instruction
system.switch_cpus_1.commit.op_class_0::IntAlu    118620830     59.31%     59.31% # Class of committed instruction
system.switch_cpus_1.commit.op_class_0::IntMult          540      0.00%     59.31% # Class of committed instruction
system.switch_cpus_1.commit.op_class_0::IntDiv            0      0.00%     59.31% # Class of committed instruction
system.switch_cpus_1.commit.op_class_0::FloatAdd        39084      0.02%     59.33% # Class of committed instruction
system.switch_cpus_1.commit.op_class_0::FloatCmp         2298      0.00%     59.33% # Class of committed instruction
system.switch_cpus_1.commit.op_class_0::FloatCvt        21051      0.01%     59.34% # Class of committed instruction
system.switch_cpus_1.commit.op_class_0::FloatMult        19362      0.01%     59.35% # Class of committed instruction
system.switch_cpus_1.commit.op_class_0::FloatMultAcc            0      0.00%     59.35% # Class of committed instruction
system.switch_cpus_1.commit.op_class_0::FloatDiv            0      0.00%     59.35% # Class of committed instruction
system.switch_cpus_1.commit.op_class_0::FloatMisc            0      0.00%     59.35% # Class of committed instruction
system.switch_cpus_1.commit.op_class_0::FloatSqrt            0      0.00%     59.35% # Class of committed instruction
system.switch_cpus_1.commit.op_class_0::SimdAdd            0      0.00%     59.35% # Class of committed instruction
system.switch_cpus_1.commit.op_class_0::SimdAddAcc            0      0.00%     59.35% # Class of committed instruction
system.switch_cpus_1.commit.op_class_0::SimdAlu            0      0.00%     59.35% # Class of committed instruction
system.switch_cpus_1.commit.op_class_0::SimdCmp            0      0.00%     59.35% # Class of committed instruction
system.switch_cpus_1.commit.op_class_0::SimdCvt            0      0.00%     59.35% # Class of committed instruction
system.switch_cpus_1.commit.op_class_0::SimdMisc            0      0.00%     59.35% # Class of committed instruction
system.switch_cpus_1.commit.op_class_0::SimdMult            0      0.00%     59.35% # Class of committed instruction
system.switch_cpus_1.commit.op_class_0::SimdMultAcc            0      0.00%     59.35% # Class of committed instruction
system.switch_cpus_1.commit.op_class_0::SimdShift            0      0.00%     59.35% # Class of committed instruction
system.switch_cpus_1.commit.op_class_0::SimdShiftAcc            0      0.00%     59.35% # Class of committed instruction
system.switch_cpus_1.commit.op_class_0::SimdSqrt            0      0.00%     59.35% # Class of committed instruction
system.switch_cpus_1.commit.op_class_0::SimdFloatAdd            0      0.00%     59.35% # Class of committed instruction
system.switch_cpus_1.commit.op_class_0::SimdFloatAlu            0      0.00%     59.35% # Class of committed instruction
system.switch_cpus_1.commit.op_class_0::SimdFloatCmp            0      0.00%     59.35% # Class of committed instruction
system.switch_cpus_1.commit.op_class_0::SimdFloatCvt            0      0.00%     59.35% # Class of committed instruction
system.switch_cpus_1.commit.op_class_0::SimdFloatDiv            0      0.00%     59.35% # Class of committed instruction
system.switch_cpus_1.commit.op_class_0::SimdFloatMisc            0      0.00%     59.35% # Class of committed instruction
system.switch_cpus_1.commit.op_class_0::SimdFloatMult            0      0.00%     59.35% # Class of committed instruction
system.switch_cpus_1.commit.op_class_0::SimdFloatMultAcc            0      0.00%     59.35% # Class of committed instruction
system.switch_cpus_1.commit.op_class_0::SimdFloatSqrt            0      0.00%     59.35% # Class of committed instruction
system.switch_cpus_1.commit.op_class_0::MemRead     65681269     32.84%     92.19% # Class of committed instruction
system.switch_cpus_1.commit.op_class_0::MemWrite     15614592      7.81%    100.00% # Class of committed instruction
system.switch_cpus_1.commit.op_class_0::FloatMemRead          795      0.00%    100.00% # Class of committed instruction
system.switch_cpus_1.commit.op_class_0::FloatMemWrite          180      0.00%    100.00% # Class of committed instruction
system.switch_cpus_1.commit.op_class_0::IprAccess            0      0.00%    100.00% # Class of committed instruction
system.switch_cpus_1.commit.op_class_0::InstPrefetch            0      0.00%    100.00% # Class of committed instruction
system.switch_cpus_1.commit.op_class_0::total    200011471                       # Class of committed instruction
system.switch_cpus_1.commit.bw_lim_events     10986496                       # number cycles where commit BW limit reached
system.switch_cpus_1.rob.rob_reads         1725208029                       # The number of ROB reads
system.switch_cpus_1.rob.rob_writes        1660352531                       # The number of ROB writes
system.switch_cpus_1.timesIdled                   117                       # Number of times that the entire CPU went into an idle state and unscheduled itself
system.switch_cpus_1.idleCycles                 12587                       # Total number of cycles that the CPU has spent unscheduled due to idling
system.switch_cpus_1.committedInsts         200000001                       # Number of Instructions Simulated
system.switch_cpus_1.committedOps           200000001                       # Number of Ops (including micro ops) Simulated
system.switch_cpus_1.cpi                     5.473598                       # CPI: Cycles Per Instruction
system.switch_cpus_1.cpi_total               5.473598                       # CPI: Total CPI of All Threads
system.switch_cpus_1.ipc                     0.182695                       # IPC: Instructions Per Cycle
system.switch_cpus_1.ipc_total               0.182695                       # IPC: Total IPC of All Threads
system.switch_cpus_1.int_regfile_reads      951399119                       # number of integer regfile reads
system.switch_cpus_1.int_regfile_writes     559245312                       # number of integer regfile writes
system.switch_cpus_1.fp_regfile_reads          173962                       # number of floating regfile reads
system.switch_cpus_1.fp_regfile_writes         133203                       # number of floating regfile writes
system.switch_cpus_1.misc_regfile_reads           675                       # number of misc regfile reads
system.switch_cpus_1.misc_regfile_writes          600                       # number of misc regfile writes
system.tol3bus.snoop_filter.tot_requests     76743685                       # Total number of requests made to the snoop filter.
system.tol3bus.snoop_filter.hit_single_requests     38369724                       # Number of requests hitting in the snoop filter with a single holder of the requested data.
system.tol3bus.snoop_filter.hit_multi_requests            0                       # Number of requests hitting in the snoop filter with multiple (>1) holders of the requested data.
system.tol3bus.snoop_filter.tot_snoops          34200                       # Total number of snoops made to the snoop filter.
system.tol3bus.snoop_filter.hit_single_snoops        34200                       # Number of snoops hitting in the snoop filter with a single holder of the requested data.
system.tol3bus.snoop_filter.hit_multi_snoops            0                       # Number of snoops hitting in the snoop filter with multiple (>1) holders of the requested data.
system.tol3bus.pwrStateResidencyTicks::UNDEFINED 303694370984979                       # Cumulative time (in ticks) in various power states
system.tol3bus.trans_dist::ReadResp          19683584                       # Transaction distribution
system.tol3bus.trans_dist::WritebackDirty     33628364                       # Transaction distribution
system.tol3bus.trans_dist::CleanEvict        16100165                       # Transaction distribution
system.tol3bus.trans_dist::ReadExReq         18690377                       # Transaction distribution
system.tol3bus.trans_dist::ReadExResp        18690377                       # Transaction distribution
system.tol3bus.trans_dist::ReadSharedReq     19683584                       # Transaction distribution
system.tol3bus.pkt_count_system.cpu.l2.mem_side::system.l3.cpu_side    115117646                       # Packet count per connected master and slave (bytes)
system.tol3bus.pkt_size_system.cpu.l2.mem_side::system.l3.cpu_side   4191852608                       # Cumulative packet size per connected master and slave (bytes)
system.tol3bus.snoops                        11358805                       # Total snoops (count)
system.tol3bus.snoopTraffic                 416296192                       # Total snoop traffic (bytes)
system.tol3bus.snoop_fanout::samples         49732766                       # Request fanout histogram
system.tol3bus.snoop_fanout::mean            0.000688                       # Request fanout histogram
system.tol3bus.snoop_fanout::stdev           0.026215                       # Request fanout histogram
system.tol3bus.snoop_fanout::underflows             0      0.00%      0.00% # Request fanout histogram
system.tol3bus.snoop_fanout::0               49698566     99.93%     99.93% # Request fanout histogram
system.tol3bus.snoop_fanout::1                  34200      0.07%    100.00% # Request fanout histogram
system.tol3bus.snoop_fanout::overflows              0      0.00%    100.00% # Request fanout histogram
system.tol3bus.snoop_fanout::min_value              0                       # Request fanout histogram
system.tol3bus.snoop_fanout::max_value              1                       # Request fanout histogram
system.tol3bus.snoop_fanout::total           49732766                       # Request fanout histogram
system.tol3bus.reqLayer0.occupancy        34587851193                       # Layer occupancy (ticks)
system.tol3bus.reqLayer0.utilization              1.0                       # Layer utilization (%)
system.tol3bus.respLayer0.occupancy       25557058026                       # Layer occupancy (ticks)
system.tol3bus.respLayer0.utilization             0.8                       # Layer utilization (%)

---------- End Simulation Statistics   ----------
